Global frequency set at 1000000000000 ticks per second
gem5 Simulator System.  https://www.gem5.org
gem5 is copyrighted software; use the --copyright option for details.

gem5 version 23.1.0.0
gem5 compiled May 10 2024 20:28:09
gem5 started May 10 2024 20:54:11
gem5 executing on bakery-Virtual-Machine, pid 113664
command line: build/X86/gem5.opt --debug-flags=ECCMemobj configs/ncu_lab1_config/ecc_memobj.py

Beginning simulation!
 434000: system.memobj: cpu->mem Got request for addr 0x94dc8
 434000: system.memobj: size 0x8
 434000: system.memobj: data_hex : 0000000000000000 
 434000: system.memobj: data : 0000000000000000000000000000000000000000000000000000000000000000 
 434000: system.memobj: hamming code : 0 
 434000: system.memobj: Enter Error Bit index: 8 
 434000: system.memobj: flip data : 0000000100000000000000000000000000000000000000000000000000000000 
 434000: system.memobj: -------------------------------------
 504000: system.memobj: cpu->mem Got request for addr 0x94dc0
 504000: system.memobj: size 0x8
 504000: system.memobj: data_hex : C8EDFFFFFF7F0000 
 504000: system.memobj: data : 1100100011101101111111111111111111111111011111110000000000000000 
 504000: system.memobj: hamming code : 15 
 504000: system.memobj: -------------------------------------
 868000: system.memobj: cpu->mem Got request for addr 0x94db8
 868000: system.memobj: size 0x8
 868000: system.memobj: data_hex : BA01400000000000 
 868000: system.memobj: data : 1011101000000001010000000000000000000000000000000000000000000000 
 868000: system.memobj: hamming code : 0 
 868000: system.memobj: -------------------------------------
 952000: system.memobj: cpu->mem Got request for addr 0x94db0
 952000: system.memobj: size 0x8
 952000: system.memobj: data_hex : 0000000000000000 
 952000: system.memobj: data : 0000000000000000000000000000000000000000000000000000000000000000 
 952000: system.memobj: hamming code : 0 
 952000: system.memobj: -------------------------------------
1120000: system.memobj: cpu->mem Got request for addr 0x94da8
1120000: system.memobj: size 0x8
1120000: system.memobj: data_hex : 0000000000000000 
1120000: system.memobj: data : 0000000000000000000000000000000000000000000000000000000000000000 
1120000: system.memobj: hamming code : 0 
1120000: system.memobj: -------------------------------------
1239000: system.memobj: cpu->mem Got request for addr 0x94da0
1239000: system.memobj: size 0x8
1239000: system.memobj: data_hex : 0000000000000000 
1239000: system.memobj: data : 0000000000000000000000000000000000000000000000000000000000000000 
1239000: system.memobj: hamming code : 0 
1239000: system.memobj: -------------------------------------
1407000: system.memobj: cpu->mem Got request for addr 0x94d98
1407000: system.memobj: size 0x8
1407000: system.memobj: data_hex : 0000000000000000 
1407000: system.memobj: data : 0000000000000000000000000000000000000000000000000000000000000000 
1407000: system.memobj: hamming code : 0 
1407000: system.memobj: -------------------------------------
1477000: system.memobj: cpu->mem Got request for addr 0x94d90
1477000: system.memobj: size 0x8
1477000: system.memobj: data_hex : 0000000000000000 
1477000: system.memobj: data : 0000000000000000000000000000000000000000000000000000000000000000 
1477000: system.memobj: hamming code : 0 
1477000: system.memobj: -------------------------------------
1547000: system.memobj: cpu->mem Got request for addr 0x94d88
1547000: system.memobj: size 0x8
1547000: system.memobj: data_hex : 0000000000000000 
1547000: system.memobj: data : 0000000000000000000000000000000000000000000000000000000000000000 
1547000: system.memobj: hamming code : 0 
1547000: system.memobj: -------------------------------------
1764000: system.memobj: cpu->mem Got request for addr 0x94ba8
1764000: system.memobj: size 0x8
1764000: system.memobj: data_hex : 7402400000000000 
1764000: system.memobj: data : 0111010000000010010000000000000000000000000000000000000000000000 
1764000: system.memobj: hamming code : 14 
1764000: system.memobj: -------------------------------------
2142000: system.memobj: cpu->mem Got request for addr 0x94ba0
2142000: system.memobj: size 0x8
2142000: system.memobj: data_hex : F09F400000000000 
2142000: system.memobj: data : 1111000010011111010000000000000000000000000000000000000000000000 
2142000: system.memobj: hamming code : 7 
2142000: system.memobj: Enter Error Bit index: 7 
2142000: system.memobj: flip data : 1111001010011111010000000000000000000000000000000000000000000000 
2142000: system.memobj: -------------------------------------
2261000: system.memobj: cpu->mem Got request for addr 0x94b98
2261000: system.memobj: size 0x8
2261000: system.memobj: data_hex : 60A0400000000000 
2261000: system.memobj: data : 0110000010100000010000000000000000000000000000000000000000000000 
2261000: system.memobj: hamming code : 3 
2261000: system.memobj: -------------------------------------
2478000: system.memobj: mem->cpu Got response for addr 0x94dc0
2478000: system.memobj: size 0x8
2478000: system.memobj: hamming code out: 15 
2478000: system.memobj: data_hex : C8EDFFFFFF7F0000 
2478000: system.memobj: data : 1100100011101101111111111111111111111111011111110000000000000000 
2478000: system.memobj: fix data : 1100100011101101111111111111111111111111011111110000000000000000 
2478000: system.memobj: -------------------------------------
2576000: system.memobj: cpu->mem Got request for addr 0x807b0
2576000: system.memobj: size 0x4
2576000: system.memobj: data_hex : 00000000 
2576000: system.memobj: data : 00000000000000000000000000000000 
2576000: system.memobj: hamming code : 0 
2576000: system.memobj: -------------------------------------
2695000: system.memobj: cpu->mem Got request for addr 0x92df8
2695000: system.memobj: size 0x8
2695000: system.memobj: data_hex : E8EDFFFFFF7F0000 
2695000: system.memobj: data : 1110100011101101111111111111111111111111011111110000000000000000 
2695000: system.memobj: hamming code : 9 
2695000: system.memobj: -------------------------------------
2828000: system.memobj: cpu->mem Got request for addr 0x7f9f8
2828000: system.memobj: size 0x8
2828000: system.memobj: data_hex : C8EDFFFFFF7F0000 
2828000: system.memobj: data : 1100100011101101111111111111111111111111011111110000000000000000 
2828000: system.memobj: hamming code : 15 
2828000: system.memobj: -------------------------------------
3339000: system.memobj: cpu->mem Got request for addr 0x94b88
3339000: system.memobj: size 0x8
3339000: system.memobj: data_hex : 819A400000000000 
3339000: system.memobj: data : 1000000110011010010000000000000000000000000000000000000000000000 
3339000: system.memobj: hamming code : 15 
3339000: system.memobj: -------------------------------------
5040000: system.memobj: cpu->mem Got request for addr 0x92e70
5040000: system.memobj: size 0x8
5040000: system.memobj: data_hex : FFFB8B0700000000 
5040000: system.memobj: data : 1111111111111011100010110000011100000000000000000000000000000000 
5040000: system.memobj: hamming code : 3 
5040000: system.memobj: -------------------------------------
6006000: system.memobj: cpu->mem Got request for addr 0x93540
6006000: system.memobj: size 0x8
6006000: system.memobj: data_hex : 0010000000000000 
6006000: system.memobj: data : 0000000000010000000000000000000000000000000000000000000000000000 
6006000: system.memobj: hamming code : 0 
6006000: system.memobj: -------------------------------------
6972000: system.memobj: cpu->mem Got request for addr 0x934f0
6972000: system.memobj: size 0x4
6972000: system.memobj: data_hex : 64000000 
6972000: system.memobj: data : 01100100000000000000000000000000 
6972000: system.memobj: hamming code : 3 
6972000: system.memobj: -------------------------------------
8172000: system.memobj: cpu->mem Got request for addr 0x934e0
8172000: system.memobj: size 0x8
8172000: system.memobj: data_hex : 4000400000000000 
8172000: system.memobj: data : 0100000000000000010000000000000000000000000000000000000000000000 
8172000: system.memobj: hamming code : 5 
8172000: system.memobj: -------------------------------------
9796000: system.memobj: cpu->mem Got request for addr 0x93510
9796000: system.memobj: size 0x8
9796000: system.memobj: data_hex : 0500000000000000 
9796000: system.memobj: data : 0000010100000000000000000000000000000000000000000000000000000000 
9796000: system.memobj: hamming code : 6 
9796000: system.memobj: Enter Error Bit index: 2 
9796000: system.memobj: flip data : 0100010100000000000000000000000000000000000000000000000000000000 
9796000: system.memobj: -------------------------------------
16420000: system.memobj: cpu->mem Got request for addr 0x93590
16420000: system.memobj: size 0x4
16420000: system.memobj: data_hex : 01000000 
16420000: system.memobj: data : 00000001000000000000000000000000 
16420000: system.memobj: hamming code : 0 
16420000: system.memobj: -------------------------------------
16539000: system.memobj: cpu->mem Got request for addr 0x7fa00
16539000: system.memobj: size 0x4
16539000: system.memobj: data_hex : 00000000 
16539000: system.memobj: data : 00000000000000000000000000000000 
16539000: system.memobj: hamming code : 0 
16539000: system.memobj: -------------------------------------
18919000: system.memobj: mem->cpu Got response for addr 0x94b88
18919000: system.memobj: size 0x8
18919000: system.memobj: hamming code out: 15 
18919000: system.memobj: data_hex : 819A400000000000 
18919000: system.memobj: data : 1000000110011010010000000000000000000000000000000000000000000000 
18919000: system.memobj: fix data : 1000000110011010010000000000000000000000000000000000000000000000 
18919000: system.memobj: -------------------------------------
19002000: system.memobj: mem->cpu Got response for addr 0x807b0
19002000: system.memobj: size 0x4
19002000: system.memobj: hamming code out: 0 
19002000: system.memobj: data_hex : 00000000 
19002000: system.memobj: data : 00000000000000000000000000000000 
19002000: system.memobj: fix data : 00000000000000000000000000000000 
19002000: system.memobj: -------------------------------------
19443000: system.memobj: cpu->mem Got request for addr 0x94b88
19443000: system.memobj: size 0x8
19443000: system.memobj: data_hex : A69A400000000000 
19443000: system.memobj: data : 1010011010011010010000000000000000000000000000000000000000000000 
19443000: system.memobj: hamming code : 4 
19443000: system.memobj: -------------------------------------
19870000: system.memobj: mem->cpu Got response for addr 0x94b88
19870000: system.memobj: size 0x8
19870000: system.memobj: hamming code out: 4 
19870000: system.memobj: data_hex : A69A400000000000 
19870000: system.memobj: data : 1010011010011010010000000000000000000000000000000000000000000000 
19870000: system.memobj: fix data : 1010011010011010010000000000000000000000000000000000000000000000 
19870000: system.memobj: -------------------------------------
24591000: system.memobj: cpu->mem Got request for addr 0x93530
24591000: system.memobj: size 0x4
24591000: system.memobj: data_hex : 00010500 
24591000: system.memobj: data : 00000000000000010000010100000000 
24591000: system.memobj: hamming code : 0 
24591000: system.memobj: -------------------------------------
24710000: system.memobj: cpu->mem Got request for addr 0x94b88
24710000: system.memobj: size 0x8
24710000: system.memobj: data_hex : 3A9B400000000000 
24710000: system.memobj: data : 0011101010011011010000000000000000000000000000000000000000000000 
24710000: system.memobj: hamming code : 3 
24710000: system.memobj: -------------------------------------
24976000: system.memobj: cpu->mem Got request for addr 0x94b70
24976000: system.memobj: size 0x8
24976000: system.memobj: data_hex : 0100000000000000 
24976000: system.memobj: data : 0000000100000000000000000000000000000000000000000000000000000000 
24976000: system.memobj: hamming code : 12 
24976000: system.memobj: -------------------------------------
25095000: system.memobj: cpu->mem Got request for addr 0x94b78
25095000: system.memobj: size 0x8
25095000: system.memobj: data_hex : D8EDFFFFFF7F0000 
25095000: system.memobj: data : 1101100011101101111111111111111111111111011111110000000000000000 
25095000: system.memobj: hamming code : 8 
25095000: system.memobj: -------------------------------------
25263000: system.memobj: cpu->mem Got request for addr 0x94b80
25263000: system.memobj: size 0x8
25263000: system.memobj: data_hex : 0000000000000000 
25263000: system.memobj: data : 0000000000000000000000000000000000000000000000000000000000000000 
25263000: system.memobj: hamming code : 0 
25263000: system.memobj: -------------------------------------
25333000: system.memobj: cpu->mem Got request for addr 0x94b58
25333000: system.memobj: size 0x8
25333000: system.memobj: data_hex : B0EBFFFFFF7F0000 
25333000: system.memobj: data : 1011000011101011111111111111111111111111011111110000000000000000 
25333000: system.memobj: hamming code : 2 
25333000: system.memobj: -------------------------------------
25515000: system.memobj: cpu->mem Got request for addr 0x94b60
25515000: system.memobj: size 0x8
25515000: system.memobj: data_hex : 0000000000000000 
25515000: system.memobj: data : 0000000000000000000000000000000000000000000000000000000000000000 
25515000: system.memobj: hamming code : 0 
25515000: system.memobj: Enter Error Bit index: 4 
25515000: system.memobj: flip data : 0001000000000000000000000000000000000000000000000000000000000000 
25515000: system.memobj: -------------------------------------
25634000: system.memobj: cpu->mem Got request for addr 0x94b68
25634000: system.memobj: size 0x8
25634000: system.memobj: data_hex : 32ECFFFFFF7F0000 
25634000: system.memobj: data : 0011001011101100111111111111111111111111011111110000000000000000 
25634000: system.memobj: hamming code : 10 
25634000: system.memobj: -------------------------------------
25816000: system.memobj: mem->cpu Got response for addr 0x934e0
25816000: system.memobj: size 0x8
25816000: system.memobj: hamming code out: 5 
25816000: system.memobj: data_hex : 4000400000000000 
25816000: system.memobj: data : 0100000000000000010000000000000000000000000000000000000000000000 
25816000: system.memobj: fix data : 0100000000000000010000000000000000000000000000000000000000000000 
25816000: system.memobj: -------------------------------------
26012000: system.memobj: cpu->mem Got request for addr 0x94b50
26012000: system.memobj: size 0x8
26012000: system.memobj: data_hex : 0000000000000000 
26012000: system.memobj: data : 0000000000000000000000000000000000000000000000000000000000000000 
26012000: system.memobj: hamming code : 0 
26012000: system.memobj: -------------------------------------
26131000: system.memobj: cpu->mem Got request for addr 0x94b48
26131000: system.memobj: size 0x8
26131000: system.memobj: data_hex : 0000000000000000 
26131000: system.memobj: data : 0000000000000000000000000000000000000000000000000000000000000000 
26131000: system.memobj: hamming code : 0 
26131000: system.memobj: -------------------------------------
26201000: system.memobj: cpu->mem Got request for addr 0x94b40
26201000: system.memobj: size 0x8
26201000: system.memobj: data_hex : 0800000000000000 
26201000: system.memobj: data : 0000100000000000000000000000000000000000000000000000000000000000 
26201000: system.memobj: hamming code : 9 
26201000: system.memobj: -------------------------------------
26452000: system.memobj: mem->cpu Got response for addr 0x93510
26452000: system.memobj: size 0x8
26452000: system.memobj: hamming code out: 6 
26452000: system.memobj: data_hex : 4500000000000000 
26452000: system.memobj: data : 0100010100000000000000000000000000000000000000000000000000000000 
26452000: system.memobj: find Error Bit index : 2 
26452000: system.memobj: fix data : 0000010100000000000000000000000000000000000000000000000000000000 
26452000: system.memobj: -------------------------------------
29315000: system.memobj: mem->cpu Got response for addr 0x94b58
29315000: system.memobj: size 0x8
29315000: system.memobj: hamming code out: 2 
29315000: system.memobj: data_hex : B0EBFFFFFF7F0000 
29315000: system.memobj: data : 1011000011101011111111111111111111111111011111110000000000000000 
29315000: system.memobj: fix data : 1011000011101011111111111111111111111111011111110000000000000000 
29315000: system.memobj: -------------------------------------
29413000: system.memobj: mem->cpu Got response for addr 0x94b60
29413000: system.memobj: size 0x8
29413000: system.memobj: hamming code out: 0 
29413000: system.memobj: data_hex : 1000000000000000 
29413000: system.memobj: data : 0001000000000000000000000000000000000000000000000000000000000000 
29413000: system.memobj: find Error Bit index : 4 
29413000: system.memobj: fix data : 0000000000000000000000000000000000000000000000000000000000000000 
29413000: system.memobj: -------------------------------------
29560000: system.memobj: mem->cpu Got response for addr 0x94b68
29560000: system.memobj: size 0x8
29560000: system.memobj: hamming code out: 10 
29560000: system.memobj: data_hex : 32ECFFFFFF7F0000 
29560000: system.memobj: data : 0011001011101100111111111111111111111111011111110000000000000000 
29560000: system.memobj: fix data : 0011001011101100111111111111111111111111011111110000000000000000 
29560000: system.memobj: -------------------------------------
29678000: system.memobj: mem->cpu Got response for addr 0x94b70
29678000: system.memobj: size 0x8
29678000: system.memobj: hamming code out: 12 
29678000: system.memobj: data_hex : 0100000000000000 
29678000: system.memobj: data : 0000000100000000000000000000000000000000000000000000000000000000 
29678000: system.memobj: fix data : 0000000100000000000000000000000000000000000000000000000000000000 
29678000: system.memobj: -------------------------------------
29776000: system.memobj: mem->cpu Got response for addr 0x94b78
29776000: system.memobj: size 0x8
29776000: system.memobj: hamming code out: 8 
29776000: system.memobj: data_hex : D8EDFFFFFF7F0000 
29776000: system.memobj: data : 1101100011101101111111111111111111111111011111110000000000000000 
29776000: system.memobj: fix data : 1101100011101101111111111111111111111111011111110000000000000000 
29776000: system.memobj: -------------------------------------
29923000: system.memobj: mem->cpu Got response for addr 0x94b80
29923000: system.memobj: size 0x8
29923000: system.memobj: hamming code out: 0 
29923000: system.memobj: data_hex : 0000000000000000 
29923000: system.memobj: data : 0000000000000000000000000000000000000000000000000000000000000000 
29923000: system.memobj: fix data : 0000000000000000000000000000000000000000000000000000000000000000 
29923000: system.memobj: -------------------------------------
30070000: system.memobj: mem->cpu Got response for addr 0x94b88
30070000: system.memobj: size 0x8
30070000: system.memobj: hamming code out: 3 
30070000: system.memobj: data_hex : 3A9B400000000000 
30070000: system.memobj: data : 0011101010011011010000000000000000000000000000000000000000000000 
30070000: system.memobj: fix data : 0011101010011011010000000000000000000000000000000000000000000000 
30070000: system.memobj: -------------------------------------
30300000: system.memobj: mem->cpu Got response for addr 0x92df8
30300000: system.memobj: size 0x8
30300000: system.memobj: hamming code out: 9 
30300000: system.memobj: data_hex : E8EDFFFFFF7F0000 
30300000: system.memobj: data : 1110100011101101111111111111111111111111011111110000000000000000 
30300000: system.memobj: fix data : 1110100011101101111111111111111111111111011111110000000000000000 
30300000: system.memobj: -------------------------------------
30447000: system.memobj: cpu->mem Got request for addr 0x94b88
30447000: system.memobj: size 0x8
30447000: system.memobj: data_hex : 5D9B400000000000 
30447000: system.memobj: data : 0101110110011011010000000000000000000000000000000000000000000000 
30447000: system.memobj: hamming code : 13 
30447000: system.memobj: -------------------------------------
30678000: system.memobj: cpu->mem Got request for addr 0x94b70
30678000: system.memobj: size 0x8
30678000: system.memobj: data_hex : B0EBFFFFFF7F0000 
30678000: system.memobj: data : 1011000011101011111111111111111111111111011111110000000000000000 
30678000: system.memobj: hamming code : 2 
30678000: system.memobj: -------------------------------------
30748000: system.memobj: cpu->mem Got request for addr 0x94b78
30748000: system.memobj: size 0x8
30748000: system.memobj: data_hex : 0000000000000000 
30748000: system.memobj: data : 0000000000000000000000000000000000000000000000000000000000000000 
30748000: system.memobj: hamming code : 0 
30748000: system.memobj: -------------------------------------
30867000: system.memobj: cpu->mem Got request for addr 0x94b80
30867000: system.memobj: size 0x8
30867000: system.memobj: data_hex : 32ECFFFFFF7F0000 
30867000: system.memobj: data : 0011001011101100111111111111111111111111011111110000000000000000 
30867000: system.memobj: hamming code : 10 
30867000: system.memobj: -------------------------------------
31629000: system.memobj: cpu->mem Got request for addr 0x807b0
31629000: system.memobj: size 0x4
31629000: system.memobj: data_hex : 00000000 
31629000: system.memobj: data : 00000000000000000000000000000000 
31629000: system.memobj: hamming code : 0 
31629000: system.memobj: -------------------------------------
31860000: system.memobj: cpu->mem Got request for addr 0x94b68
31860000: system.memobj: size 0x8
31860000: system.memobj: data_hex : 6D62410000000000 
31860000: system.memobj: data : 0110110101100010010000010000000000000000000000000000000000000000 
31860000: system.memobj: hamming code : 12 
31860000: system.memobj: Enter Error Bit index: 2 
31860000: system.memobj: flip data : 0010110101100010010000010000000000000000000000000000000000000000 
31860000: system.memobj: -------------------------------------
31944000: system.memobj: cpu->mem Got request for addr 0x94b66
31944000: system.memobj: size 0x2
31944000: system.memobj: data_hex : 0000 
31944000: system.memobj: data : 0000000000000000 
31944000: system.memobj: hamming code : 0 
31944000: system.memobj: -------------------------------------
32126000: system.memobj: mem->cpu Got response for addr 0x94b66
32126000: system.memobj: size 0x2
32126000: system.memobj: hamming code out: 0 
32126000: system.memobj: data_hex : 0000 
32126000: system.memobj: data : 0000000000000000 
32126000: system.memobj: fix data : 0000000000000000 
32126000: system.memobj: -------------------------------------
32420000: system.memobj: cpu->mem Got request for addr 0x94b66
32420000: system.memobj: size 0x2
32420000: system.memobj: data_hex : 3F03 
32420000: system.memobj: data : 0011111100000011 
32420000: system.memobj: hamming code : 0 
32420000: system.memobj: -------------------------------------
32539000: system.memobj: mem->cpu Got response for addr 0x94b66
32539000: system.memobj: size 0x2
32539000: system.memobj: hamming code out: 0 
32539000: system.memobj: data_hex : 3F03 
32539000: system.memobj: data : 0011111100000011 
32539000: system.memobj: fix data : 0011111100000011 
32539000: system.memobj: -------------------------------------
32637000: system.memobj: mem->cpu Got response for addr 0x94b68
32637000: system.memobj: size 0x8
32637000: system.memobj: hamming code out: 12 
32637000: system.memobj: data_hex : 2D62410000000000 
32637000: system.memobj: data : 0010110101100010010000010000000000000000000000000000000000000000 
32637000: system.memobj: find Error Bit index : 2 
32637000: system.memobj: fix data : 0110110101100010010000010000000000000000000000000000000000000000 
32637000: system.memobj: -------------------------------------
32784000: system.memobj: cpu->mem Got request for addr 0x93598
32784000: system.memobj: size 0x4
32784000: system.memobj: data_hex : 01000000 
32784000: system.memobj: data : 00000001000000000000000000000000 
32784000: system.memobj: hamming code : 0 
32784000: system.memobj: -------------------------------------
32854000: system.memobj: cpu->mem Got request for addr 0x935a0
32854000: system.memobj: size 0x8
32854000: system.memobj: data_hex : D8EDFFFFFF7F0000 
32854000: system.memobj: data : 1101100011101101111111111111111111111111011111110000000000000000 
32854000: system.memobj: hamming code : 8 
32854000: system.memobj: -------------------------------------
32924000: system.memobj: cpu->mem Got request for addr 0x92df8
32924000: system.memobj: size 0x8
32924000: system.memobj: data_hex : E8EDFFFFFF7F0000 
32924000: system.memobj: data : 1110100011101101111111111111111111111111011111110000000000000000 
32924000: system.memobj: hamming code : 9 
32924000: system.memobj: -------------------------------------
33043000: system.memobj: cpu->mem Got request for addr 0x94b68
33043000: system.memobj: size 0x8
33043000: system.memobj: data_hex : 3C62410000000000 
33043000: system.memobj: data : 0011110001100010010000010000000000000000000000000000000000000000 
33043000: system.memobj: hamming code : 2 
33043000: system.memobj: -------------------------------------
33113000: system.memobj: cpu->mem Got request for addr 0x94b58
33113000: system.memobj: size 0x8
33113000: system.memobj: data_hex : E8EDFFFFFF7F0000 
33113000: system.memobj: data : 1110100011101101111111111111111111111111011111110000000000000000 
33113000: system.memobj: hamming code : 9 
33113000: system.memobj: -------------------------------------
33246000: system.memobj: cpu->mem Got request for addr 0x94b60
33246000: system.memobj: size 0x8
33246000: system.memobj: data_hex : D8EDFFFFFF7F0000 
33246000: system.memobj: data : 1101100011101101111111111111111111111111011111110000000000000000 
33246000: system.memobj: hamming code : 8 
33246000: system.memobj: -------------------------------------
33434000: system.memobj: mem->cpu Got response for addr 0x93590
33434000: system.memobj: size 0x4
33434000: system.memobj: hamming code out: 0 
33434000: system.memobj: data_hex : 01000000 
33434000: system.memobj: data : 00000001000000000000000000000000 
33434000: system.memobj: fix data : 00000001000000000000000000000000 
33434000: system.memobj: -------------------------------------
33630000: system.memobj: mem->cpu Got response for addr 0x94b58
33630000: system.memobj: size 0x8
33630000: system.memobj: hamming code out: 9 
33630000: system.memobj: data_hex : E8EDFFFFFF7F0000 
33630000: system.memobj: data : 1110100011101101111111111111111111111111011111110000000000000000 
33630000: system.memobj: fix data : 1110100011101101111111111111111111111111011111110000000000000000 
33630000: system.memobj: -------------------------------------
33777000: system.memobj: mem->cpu Got response for addr 0x94b60
33777000: system.memobj: size 0x8
33777000: system.memobj: hamming code out: 8 
33777000: system.memobj: data_hex : D8EDFFFFFF7F0000 
33777000: system.memobj: data : 1101100011101101111111111111111111111111011111110000000000000000 
33777000: system.memobj: fix data : 1101100011101101111111111111111111111111011111110000000000000000 
33777000: system.memobj: -------------------------------------
33924000: system.memobj: mem->cpu Got response for addr 0x94b68
33924000: system.memobj: size 0x8
33924000: system.memobj: hamming code out: 2 
33924000: system.memobj: data_hex : 3C62410000000000 
33924000: system.memobj: data : 0011110001100010010000010000000000000000000000000000000000000000 
33924000: system.memobj: fix data : 0011110001100010010000010000000000000000000000000000000000000000 
33924000: system.memobj: -------------------------------------
34022000: system.memobj: cpu->mem Got request for addr 0x94b68
34022000: system.memobj: size 0x8
34022000: system.memobj: data_hex : 4162410000000000 
34022000: system.memobj: data : 0100000101100010010000010000000000000000000000000000000000000000 
34022000: system.memobj: hamming code : 9 
34022000: system.memobj: -------------------------------------
34120000: system.memobj: cpu->mem Got request for addr 0x94b60
34120000: system.memobj: size 0x8
34120000: system.memobj: data_hex : 0100000000000000 
34120000: system.memobj: data : 0000000100000000000000000000000000000000000000000000000000000000 
34120000: system.memobj: hamming code : 12 
34120000: system.memobj: Enter Error Bit index: 8 
34120000: system.memobj: flip data : 0000000000000000000000000000000000000000000000000000000000000000 
34120000: system.memobj: -------------------------------------
34190000: system.memobj: cpu->mem Got request for addr 0x94b58
34190000: system.memobj: size 0x8
34190000: system.memobj: data_hex : 0100000000000000 
34190000: system.memobj: data : 0000000100000000000000000000000000000000000000000000000000000000 
34190000: system.memobj: hamming code : 12 
34190000: system.memobj: -------------------------------------
34260000: system.memobj: cpu->mem Got request for addr 0x94b50
34260000: system.memobj: size 0x8
34260000: system.memobj: data_hex : D8EDFFFFFF7F0000 
34260000: system.memobj: data : 1101100011101101111111111111111111111111011111110000000000000000 
34260000: system.memobj: hamming code : 8 
34260000: system.memobj: -------------------------------------
34330000: system.memobj: cpu->mem Got request for addr 0x94b48
34330000: system.memobj: size 0x8
34330000: system.memobj: data_hex : E8EDFFFFFF7F0000 
34330000: system.memobj: data : 1110100011101101111111111111111111111111011111110000000000000000 
34330000: system.memobj: hamming code : 9 
34330000: system.memobj: -------------------------------------
34763000: system.memobj: mem->cpu Got response for addr 0x93540
34763000: system.memobj: size 0x8
34763000: system.memobj: hamming code out: 0 
34763000: system.memobj: data_hex : 0010000000000000 
34763000: system.memobj: data : 0000000000010000000000000000000000000000000000000000000000000000 
34763000: system.memobj: fix data : 0000000000010000000000000000000000000000000000000000000000000000 
34763000: system.memobj: -------------------------------------
34861000: system.memobj: cpu->mem Got request for addr 0x934c0
34861000: system.memobj: size 0x8
34861000: system.memobj: data_hex : C286000000000000 
34861000: system.memobj: data : 1100001010000110000000000000000000000000000000000000000000000000 
34861000: system.memobj: hamming code : 13 
34861000: system.memobj: -------------------------------------
35190000: system.memobj: cpu->mem Got request for addr 0x94b38
35190000: system.memobj: size 0x8
35190000: system.memobj: data_hex : B35C410000000000 
35190000: system.memobj: data : 1011001101011100010000010000000000000000000000000000000000000000 
35190000: system.memobj: hamming code : 5 
35190000: system.memobj: -------------------------------------
35274000: system.memobj: cpu->mem Got request for addr 0x94b20
35274000: system.memobj: size 0x8
35274000: system.memobj: data_hex : 0100000000000000 
35274000: system.memobj: data : 0000000100000000000000000000000000000000000000000000000000000000 
35274000: system.memobj: hamming code : 12 
35274000: system.memobj: -------------------------------------
35393000: system.memobj: cpu->mem Got request for addr 0x94b30
35393000: system.memobj: size 0x8
35393000: system.memobj: data_hex : D8EDFFFFFF7F0000 
35393000: system.memobj: data : 1101100011101101111111111111111111111111011111110000000000000000 
35393000: system.memobj: hamming code : 8 
35393000: system.memobj: -------------------------------------
35561000: system.memobj: cpu->mem Got request for addr 0x94b10
35561000: system.memobj: size 0x8
35561000: system.memobj: data_hex : 0717470000000000 
35561000: system.memobj: data : 0000011100010111010001110000000000000000000000000000000000000000 
35561000: system.memobj: hamming code : 13 
35561000: system.memobj: -------------------------------------
35631000: system.memobj: cpu->mem Got request for addr 0x94b18
35631000: system.memobj: size 0x8
35631000: system.memobj: data_hex : D8EDFFFFFF7F0000 
35631000: system.memobj: data : 1101100011101101111111111111111111111111011111110000000000000000 
35631000: system.memobj: hamming code : 8 
35631000: system.memobj: -------------------------------------
35750000: system.memobj: cpu->mem Got request for addr 0x94b28
35750000: system.memobj: size 0x8
35750000: system.memobj: data_hex : 0100000000000000 
35750000: system.memobj: data : 0000000100000000000000000000000000000000000000000000000000000000 
35750000: system.memobj: hamming code : 12 
35750000: system.memobj: Enter Error Bit index: 3 
35750000: system.memobj: flip data : 0010000100000000000000000000000000000000000000000000000000000000 
35750000: system.memobj: -------------------------------------
35869000: system.memobj: cpu->mem Got request for addr 0x94b08
35869000: system.memobj: size 0x8
35869000: system.memobj: data_hex : 45A3410000000000 
35869000: system.memobj: data : 0100010110100011010000010000000000000000000000000000000000000000 
35869000: system.memobj: hamming code : 3 
35869000: system.memobj: -------------------------------------
40794000: system.memobj: mem->cpu Got response for addr 0x94b08
40794000: system.memobj: size 0x8
40794000: system.memobj: hamming code out: 3 
40794000: system.memobj: data_hex : 45A3410000000000 
40794000: system.memobj: data : 0100010110100011010000010000000000000000000000000000000000000000 
40794000: system.memobj: fix data : 0100010110100011010000010000000000000000000000000000000000000000 
40794000: system.memobj: -------------------------------------
40926000: system.memobj: mem->cpu Got response for addr 0x92df8
40926000: system.memobj: size 0x8
40926000: system.memobj: hamming code out: 9 
40926000: system.memobj: data_hex : E8EDFFFFFF7F0000 
40926000: system.memobj: data : 1110100011101101111111111111111111111111011111110000000000000000 
40926000: system.memobj: fix data : 1110100011101101111111111111111111111111011111110000000000000000 
40926000: system.memobj: -------------------------------------
42312000: system.memobj: mem->cpu Got response for addr 0x94b10
42312000: system.memobj: size 0x8
42312000: system.memobj: hamming code out: 13 
42312000: system.memobj: data_hex : 0717470000000000 
42312000: system.memobj: data : 0000011100010111010001110000000000000000000000000000000000000000 
42312000: system.memobj: fix data : 0000011100010111010001110000000000000000000000000000000000000000 
42312000: system.memobj: -------------------------------------
42410000: system.memobj: mem->cpu Got response for addr 0x94b18
42410000: system.memobj: size 0x8
42410000: system.memobj: hamming code out: 8 
42410000: system.memobj: data_hex : D8EDFFFFFF7F0000 
42410000: system.memobj: data : 1101100011101101111111111111111111111111011111110000000000000000 
42410000: system.memobj: fix data : 1101100011101101111111111111111111111111011111110000000000000000 
42410000: system.memobj: -------------------------------------
42508000: system.memobj: mem->cpu Got response for addr 0x94b20
42508000: system.memobj: size 0x8
42508000: system.memobj: hamming code out: 12 
42508000: system.memobj: data_hex : 0100000000000000 
42508000: system.memobj: data : 0000000100000000000000000000000000000000000000000000000000000000 
42508000: system.memobj: fix data : 0000000100000000000000000000000000000000000000000000000000000000 
42508000: system.memobj: -------------------------------------
42655000: system.memobj: mem->cpu Got response for addr 0x94b28
42655000: system.memobj: size 0x8
42655000: system.memobj: hamming code out: 12 
42655000: system.memobj: data_hex : 2100000000000000 
42655000: system.memobj: data : 0010000100000000000000000000000000000000000000000000000000000000 
42655000: system.memobj: find Error Bit index : 3 
42655000: system.memobj: fix data : 0000000100000000000000000000000000000000000000000000000000000000 
42655000: system.memobj: -------------------------------------
42753000: system.memobj: mem->cpu Got response for addr 0x94b30
42753000: system.memobj: size 0x8
42753000: system.memobj: hamming code out: 8 
42753000: system.memobj: data_hex : D8EDFFFFFF7F0000 
42753000: system.memobj: data : 1101100011101101111111111111111111111111011111110000000000000000 
42753000: system.memobj: fix data : 1101100011101101111111111111111111111111011111110000000000000000 
42753000: system.memobj: -------------------------------------
42934000: system.memobj: mem->cpu Got response for addr 0x94b38
42934000: system.memobj: size 0x8
42934000: system.memobj: hamming code out: 5 
42934000: system.memobj: data_hex : B35C410000000000 
42934000: system.memobj: data : 1011001101011100010000010000000000000000000000000000000000000000 
42934000: system.memobj: fix data : 1011001101011100010000010000000000000000000000000000000000000000 
42934000: system.memobj: -------------------------------------
43480000: system.memobj: cpu->mem Got request for addr 0x93508
43480000: system.memobj: size 0x4
43480000: system.memobj: data_hex : 00000000 
43480000: system.memobj: data : 00000000000000000000000000000000 
43480000: system.memobj: hamming code : 0 
43480000: system.memobj: -------------------------------------
43599000: system.memobj: cpu->mem Got request for addr 0x94b38
43599000: system.memobj: size 0x8
43599000: system.memobj: data_hex : D35C410000000000 
43599000: system.memobj: data : 1101001101011100010000010000000000000000000000000000000000000000 
43599000: system.memobj: hamming code : 6 
43599000: system.memobj: -------------------------------------
43669000: system.memobj: cpu->mem Got request for addr 0x94b20
43669000: system.memobj: size 0x8
43669000: system.memobj: data_hex : 0100000000000000 
43669000: system.memobj: data : 0000000100000000000000000000000000000000000000000000000000000000 
43669000: system.memobj: hamming code : 12 
43669000: system.memobj: -------------------------------------
43788000: system.memobj: cpu->mem Got request for addr 0x94b30
43788000: system.memobj: size 0x8
43788000: system.memobj: data_hex : D8EDFFFFFF7F0000 
43788000: system.memobj: data : 1101100011101101111111111111111111111111011111110000000000000000 
43788000: system.memobj: hamming code : 8 
43788000: system.memobj: -------------------------------------
43956000: system.memobj: cpu->mem Got request for addr 0x94b10
43956000: system.memobj: size 0x8
43956000: system.memobj: data_hex : 0717470000000000 
43956000: system.memobj: data : 0000011100010111010001110000000000000000000000000000000000000000 
43956000: system.memobj: hamming code : 13 
43956000: system.memobj: -------------------------------------
44026000: system.memobj: cpu->mem Got request for addr 0x94b18
44026000: system.memobj: size 0x8
44026000: system.memobj: data_hex : D8EDFFFFFF7F0000 
44026000: system.memobj: data : 1101100011101101111111111111111111111111011111110000000000000000 
44026000: system.memobj: hamming code : 8 
44026000: system.memobj: -------------------------------------
44145000: system.memobj: cpu->mem Got request for addr 0x94b28
44145000: system.memobj: size 0x8
44145000: system.memobj: data_hex : 0100000000000000 
44145000: system.memobj: data : 0000000100000000000000000000000000000000000000000000000000000000 
44145000: system.memobj: hamming code : 12 
44145000: system.memobj: -------------------------------------
44264000: system.memobj: cpu->mem Got request for addr 0x94b08
44264000: system.memobj: size 0x8
44264000: system.memobj: data_hex : 45A3410000000000 
44264000: system.memobj: data : 0100010110100011010000010000000000000000000000000000000000000000 
44264000: system.memobj: hamming code : 3 
44264000: system.memobj: -------------------------------------
49819000: system.memobj: mem->cpu Got response for addr 0x94b08
49819000: system.memobj: size 0x8
49819000: system.memobj: hamming code out: 3 
49819000: system.memobj: data_hex : 45A3410000000000 
49819000: system.memobj: data : 0100010110100011010000010000000000000000000000000000000000000000 
49819000: system.memobj: fix data : 0100010110100011010000010000000000000000000000000000000000000000 
49819000: system.memobj: -------------------------------------
49951000: system.memobj: mem->cpu Got response for addr 0x92df8
49951000: system.memobj: size 0x8
49951000: system.memobj: hamming code out: 9 
49951000: system.memobj: data_hex : E8EDFFFFFF7F0000 
49951000: system.memobj: data : 1110100011101101111111111111111111111111011111110000000000000000 
49951000: system.memobj: fix data : 1110100011101101111111111111111111111111011111110000000000000000 
49951000: system.memobj: -------------------------------------
51337000: system.memobj: mem->cpu Got response for addr 0x94b10
51337000: system.memobj: size 0x8
51337000: system.memobj: hamming code out: 13 
51337000: system.memobj: data_hex : 0717470000000000 
51337000: system.memobj: data : 0000011100010111010001110000000000000000000000000000000000000000 
51337000: system.memobj: fix data : 0000011100010111010001110000000000000000000000000000000000000000 
51337000: system.memobj: -------------------------------------
51435000: system.memobj: mem->cpu Got response for addr 0x94b18
51435000: system.memobj: size 0x8
51435000: system.memobj: hamming code out: 8 
51435000: system.memobj: data_hex : D8EDFFFFFF7F0000 
51435000: system.memobj: data : 1101100011101101111111111111111111111111011111110000000000000000 
51435000: system.memobj: fix data : 1101100011101101111111111111111111111111011111110000000000000000 
51435000: system.memobj: -------------------------------------
51533000: system.memobj: mem->cpu Got response for addr 0x94b20
51533000: system.memobj: size 0x8
51533000: system.memobj: hamming code out: 12 
51533000: system.memobj: data_hex : 0100000000000000 
51533000: system.memobj: data : 0000000100000000000000000000000000000000000000000000000000000000 
51533000: system.memobj: fix data : 0000000100000000000000000000000000000000000000000000000000000000 
51533000: system.memobj: -------------------------------------
51680000: system.memobj: mem->cpu Got response for addr 0x94b28
51680000: system.memobj: size 0x8
51680000: system.memobj: hamming code out: 12 
51680000: system.memobj: data_hex : 0100000000000000 
51680000: system.memobj: data : 0000000100000000000000000000000000000000000000000000000000000000 
51680000: system.memobj: fix data : 0000000100000000000000000000000000000000000000000000000000000000 
51680000: system.memobj: -------------------------------------
51778000: system.memobj: mem->cpu Got response for addr 0x94b30
51778000: system.memobj: size 0x8
51778000: system.memobj: hamming code out: 8 
51778000: system.memobj: data_hex : D8EDFFFFFF7F0000 
51778000: system.memobj: data : 1101100011101101111111111111111111111111011111110000000000000000 
51778000: system.memobj: fix data : 1101100011101101111111111111111111111111011111110000000000000000 
51778000: system.memobj: -------------------------------------
51959000: system.memobj: mem->cpu Got response for addr 0x94b38
51959000: system.memobj: size 0x8
51959000: system.memobj: hamming code out: 6 
51959000: system.memobj: data_hex : D35C410000000000 
51959000: system.memobj: data : 1101001101011100010000010000000000000000000000000000000000000000 
51959000: system.memobj: fix data : 1101001101011100010000010000000000000000000000000000000000000000 
51959000: system.memobj: -------------------------------------
52134000: system.memobj: cpu->mem Got request for addr 0x94b38
52134000: system.memobj: size 0x8
52134000: system.memobj: data_hex : DB5C410000000000 
52134000: system.memobj: data : 1101101101011100010000010000000000000000000000000000000000000000 
52134000: system.memobj: hamming code : 15 
52134000: system.memobj: Enter Error Bit index: 5 
52134000: system.memobj: flip data : 1101001101011100010000010000000000000000000000000000000000000000 
52134000: system.memobj: -------------------------------------
52232000: system.memobj: cpu->mem Got request for addr 0x94b30
52232000: system.memobj: size 0x8
52232000: system.memobj: data_hex : D8EDFFFFFF7F0000 
52232000: system.memobj: data : 1101100011101101111111111111111111111111011111110000000000000000 
52232000: system.memobj: hamming code : 8 
52232000: system.memobj: -------------------------------------
52498000: system.memobj: cpu->mem Got request for addr 0x94b28
52498000: system.memobj: size 0x8
52498000: system.memobj: data_hex : 0100000000000000 
52498000: system.memobj: data : 0000000100000000000000000000000000000000000000000000000000000000 
52498000: system.memobj: hamming code : 12 
52498000: system.memobj: -------------------------------------
52617000: system.memobj: cpu->mem Got request for addr 0x94b20
52617000: system.memobj: size 0x8
52617000: system.memobj: data_hex : 0100000000000000 
52617000: system.memobj: data : 0000000100000000000000000000000000000000000000000000000000000000 
52617000: system.memobj: hamming code : 12 
52617000: system.memobj: -------------------------------------
52687000: system.memobj: cpu->mem Got request for addr 0x94b18
52687000: system.memobj: size 0x8
52687000: system.memobj: data_hex : 0717470000000000 
52687000: system.memobj: data : 0000011100010111010001110000000000000000000000000000000000000000 
52687000: system.memobj: hamming code : 13 
52687000: system.memobj: -------------------------------------
53212000: system.memobj: cpu->mem Got request for addr 0x94b08
53212000: system.memobj: size 0x8
53212000: system.memobj: data_hex : 1D2D430000000000 
53212000: system.memobj: data : 0001110100101101010000110000000000000000000000000000000000000000 
53212000: system.memobj: hamming code : 8 
53212000: system.memobj: -------------------------------------
53380000: system.memobj: cpu->mem Got request for addr 0x92e88
53380000: system.memobj: size 0x8
53380000: system.memobj: data_hex : 0000000000000000 
53380000: system.memobj: data : 0000000000000000000000000000000000000000000000000000000000000000 
53380000: system.memobj: hamming code : 0 
53380000: system.memobj: -------------------------------------
53499000: system.memobj: cpu->mem Got request for addr 0x92e80
53499000: system.memobj: size 0x8
53499000: system.memobj: data_hex : 902E590000000000 
53499000: system.memobj: data : 1001000000101110010110010000000000000000000000000000000000000000 
53499000: system.memobj: hamming code : 4 
53499000: system.memobj: -------------------------------------
53618000: system.memobj: cpu->mem Got request for addr 0x7fa38
53618000: system.memobj: size 0x8
53618000: system.memobj: data_hex : 0100000000000000 
53618000: system.memobj: data : 0000000100000000000000000000000000000000000000000000000000000000 
53618000: system.memobj: hamming code : 12 
53618000: system.memobj: -------------------------------------
53765000: system.memobj: mem->cpu Got response for addr 0x94b08
53765000: system.memobj: size 0x8
53765000: system.memobj: hamming code out: 8 
53765000: system.memobj: data_hex : 1D2D430000000000 
53765000: system.memobj: data : 0001110100101101010000110000000000000000000000000000000000000000 
53765000: system.memobj: fix data : 0001110100101101010000110000000000000000000000000000000000000000 
53765000: system.memobj: -------------------------------------
53961000: system.memobj: cpu->mem Got request for addr 0x7fa30
53961000: system.memobj: size 0x8
53961000: system.memobj: data_hex : 802E590000000000 
53961000: system.memobj: data : 1000000000101110010110010000000000000000000000000000000000000000 
53961000: system.memobj: hamming code : 3 
53961000: system.memobj: -------------------------------------
54031000: system.memobj: cpu->mem Got request for addr 0x94b08
54031000: system.memobj: size 0x8
54031000: system.memobj: data_hex : 2E2D430000000000 
54031000: system.memobj: data : 0010111000101101010000110000000000000000000000000000000000000000 
54031000: system.memobj: hamming code : 14 
54031000: system.memobj: Enter Error Bit index: 2 
54031000: system.memobj: flip data : 0110111000101101010000110000000000000000000000000000000000000000 
54031000: system.memobj: -------------------------------------
54115000: system.memobj: cpu->mem Got request for addr 0x94af8
54115000: system.memobj: size 0x8
54115000: system.memobj: data_hex : 0100000000000000 
54115000: system.memobj: data : 0000000100000000000000000000000000000000000000000000000000000000 
54115000: system.memobj: hamming code : 12 
54115000: system.memobj: -------------------------------------
54234000: system.memobj: cpu->mem Got request for addr 0x94ae8
54234000: system.memobj: size 0x8
54234000: system.memobj: data_hex : 0717470000000000 
54234000: system.memobj: data : 0000011100010111010001110000000000000000000000000000000000000000 
54234000: system.memobj: hamming code : 13 
54234000: system.memobj: -------------------------------------
54402000: system.memobj: cpu->mem Got request for addr 0x94af0
54402000: system.memobj: size 0x8
54402000: system.memobj: data_hex : 30EBFFFFFF7F0000 
54402000: system.memobj: data : 0011000011101011111111111111111111111111011111110000000000000000 
54402000: system.memobj: hamming code : 1 
54402000: system.memobj: -------------------------------------
54472000: system.memobj: cpu->mem Got request for addr 0x94b00
54472000: system.memobj: size 0x8
54472000: system.memobj: data_hex : 0000000000000000 
54472000: system.memobj: data : 0000000000000000000000000000000000000000000000000000000000000000 
54472000: system.memobj: hamming code : 0 
54472000: system.memobj: -------------------------------------
55260000: system.memobj: mem->cpu Got response for addr 0x94b08
55260000: system.memobj: size 0x8
55260000: system.memobj: hamming code out: 14 
55260000: system.memobj: data_hex : 6E2D430000000000 
55260000: system.memobj: data : 0110111000101101010000110000000000000000000000000000000000000000 
55260000: system.memobj: find Error Bit index : 2 
55260000: system.memobj: fix data : 0010111000101101010000110000000000000000000000000000000000000000 
55260000: system.memobj: -------------------------------------
55407000: system.memobj: mem->cpu Got response for addr 0x94ae8
55407000: system.memobj: size 0x8
55407000: system.memobj: hamming code out: 13 
55407000: system.memobj: data_hex : 0717470000000000 
55407000: system.memobj: data : 0000011100010111010001110000000000000000000000000000000000000000 
55407000: system.memobj: fix data : 0000011100010111010001110000000000000000000000000000000000000000 
55407000: system.memobj: -------------------------------------
55603000: system.memobj: mem->cpu Got response for addr 0x94af0
55603000: system.memobj: size 0x8
55603000: system.memobj: hamming code out: 1 
55603000: system.memobj: data_hex : 30EBFFFFFF7F0000 
55603000: system.memobj: data : 0011000011101011111111111111111111111111011111110000000000000000 
55603000: system.memobj: fix data : 0011000011101011111111111111111111111111011111110000000000000000 
55603000: system.memobj: -------------------------------------
55672000: system.memobj: mem->cpu Got response for addr 0x94af8
55672000: system.memobj: size 0x8
55672000: system.memobj: hamming code out: 12 
55672000: system.memobj: data_hex : 0100000000000000 
55672000: system.memobj: data : 0000000100000000000000000000000000000000000000000000000000000000 
55672000: system.memobj: fix data : 0000000100000000000000000000000000000000000000000000000000000000 
55672000: system.memobj: -------------------------------------
55819000: system.memobj: mem->cpu Got response for addr 0x94b00
55819000: system.memobj: size 0x8
55819000: system.memobj: hamming code out: 0 
55819000: system.memobj: data_hex : 0000000000000000 
55819000: system.memobj: data : 0000000000000000000000000000000000000000000000000000000000000000 
55819000: system.memobj: fix data : 0000000000000000000000000000000000000000000000000000000000000000 
55819000: system.memobj: -------------------------------------
56043000: system.memobj: cpu->mem Got request for addr 0x94b00
56043000: system.memobj: size 0x8
56043000: system.memobj: data_hex : 0717470000000000 
56043000: system.memobj: data : 0000011100010111010001110000000000000000000000000000000000000000 
56043000: system.memobj: hamming code : 13 
56043000: system.memobj: -------------------------------------
56211000: system.memobj: cpu->mem Got request for addr 0x806f8
56211000: system.memobj: size 0x8
56211000: system.memobj: data_hex : 0000000000000000 
56211000: system.memobj: data : 0000000000000000000000000000000000000000000000000000000000000000 
56211000: system.memobj: hamming code : 0 
56211000: system.memobj: -------------------------------------
56330000: system.memobj: cpu->mem Got request for addr 0x94af8
56330000: system.memobj: size 0x8
56330000: system.memobj: data_hex : F405410000000000 
56330000: system.memobj: data : 1111010000000101010000010000000000000000000000000000000000000000 
56330000: system.memobj: hamming code : 13 
56330000: system.memobj: -------------------------------------
56400000: system.memobj: cpu->mem Got request for addr 0x94ae0
56400000: system.memobj: size 0x8
56400000: system.memobj: data_hex : 1800000000000000 
56400000: system.memobj: data : 0001100000000000000000000000000000000000000000000000000000000000 
56400000: system.memobj: hamming code : 14 
56400000: system.memobj: -------------------------------------
56519000: system.memobj: cpu->mem Got request for addr 0x94ae8
56519000: system.memobj: size 0x8
56519000: system.memobj: data_hex : 30EBFFFFFF7F0000 
56519000: system.memobj: data : 0011000011101011111111111111111111111111011111110000000000000000 
56519000: system.memobj: hamming code : 1 
56519000: system.memobj: -------------------------------------
56589000: system.memobj: cpu->mem Got request for addr 0x94af0
56589000: system.memobj: size 0x8
56589000: system.memobj: data_hex : 0100000000000000 
56589000: system.memobj: data : 0000000100000000000000000000000000000000000000000000000000000000 
56589000: system.memobj: hamming code : 12 
56589000: system.memobj: Enter Error Bit index: 6 
56589000: system.memobj: flip data : 0000010100000000000000000000000000000000000000000000000000000000 
56589000: system.memobj: -------------------------------------
57114000: system.memobj: cpu->mem Got request for addr 0x806e0
57114000: system.memobj: size 0x4
57114000: system.memobj: data_hex : 00000000 
57114000: system.memobj: data : 00000000000000000000000000000000 
57114000: system.memobj: hamming code : 0 
57114000: system.memobj: -------------------------------------
57233000: system.memobj: cpu->mem Got request for addr 0x92d48
57233000: system.memobj: size 0x8
57233000: system.memobj: data_hex : 0000020000000000 
57233000: system.memobj: data : 0000000000000000000000100000000000000000000000000000000000000000 
57233000: system.memobj: hamming code : 0 
57233000: system.memobj: -------------------------------------
57352000: system.memobj: cpu->mem Got request for addr 0x92d5c
57352000: system.memobj: size 0x4
57352000: system.memobj: data_hex : 00000100 
57352000: system.memobj: data : 00000000000000000000000100000000 
57352000: system.memobj: hamming code : 0 
57352000: system.memobj: -------------------------------------
57471000: system.memobj: cpu->mem Got request for addr 0x92d50
57471000: system.memobj: size 0x8
57471000: system.memobj: data_hex : 0000020000000000 
57471000: system.memobj: data : 0000000000000000000000100000000000000000000000000000000000000000 
57471000: system.memobj: hamming code : 0 
57471000: system.memobj: -------------------------------------
57590000: system.memobj: cpu->mem Got request for addr 0x92d40
57590000: system.memobj: size 0x8
57590000: system.memobj: data_hex : 0000020000000000 
57590000: system.memobj: data : 0000000000000000000000100000000000000000000000000000000000000000 
57590000: system.memobj: hamming code : 0 
57590000: system.memobj: -------------------------------------
57660000: system.memobj: cpu->mem Got request for addr 0x94ac8
57660000: system.memobj: size 0x8
57660000: system.memobj: data_hex : 1003410000000000 
57660000: system.memobj: data : 0001000000000011010000010000000000000000000000000000000000000000 
57660000: system.memobj: hamming code : 7 
57660000: system.memobj: -------------------------------------
57764000: system.memobj: mem->cpu Got response for addr 0x93540
57764000: system.memobj: size 0x8
57764000: system.memobj: hamming code out: 0 
57764000: system.memobj: data_hex : 0010000000000000 
57764000: system.memobj: data : 0000000000010000000000000000000000000000000000000000000000000000 
57764000: system.memobj: fix data : 0000000000010000000000000000000000000000000000000000000000000000 
57764000: system.memobj: -------------------------------------
58107000: system.memobj: mem->cpu Got response for addr 0x94ac8
58107000: system.memobj: size 0x8
58107000: system.memobj: hamming code out: 7 
58107000: system.memobj: data_hex : 1003410000000000 
58107000: system.memobj: data : 0001000000000011010000010000000000000000000000000000000000000000 
58107000: system.memobj: fix data : 0001000000000011010000010000000000000000000000000000000000000000 
58107000: system.memobj: -------------------------------------
58254000: system.memobj: cpu->mem Got request for addr 0x92d64
58254000: system.memobj: size 0x4
58254000: system.memobj: data_hex : 00100000 
58254000: system.memobj: data : 00000000000100000000000000000000 
58254000: system.memobj: hamming code : 0 
58254000: system.memobj: -------------------------------------
58436000: system.memobj: cpu->mem Got request for addr 0x92480
58436000: system.memobj: size 0x4
58436000: system.memobj: data_hex : 00000000 
58436000: system.memobj: data : 00000000000000000000000000000000 
58436000: system.memobj: hamming code : 0 
58436000: system.memobj: -------------------------------------
58751000: system.memobj: cpu->mem Got request for addr 0x92d28
58751000: system.memobj: size 0x8
58751000: system.memobj: data_hex : 8024590000000000 
58751000: system.memobj: data : 1000000000100100010110010000000000000000000000000000000000000000 
58751000: system.memobj: hamming code : 3 
58751000: system.memobj: -------------------------------------
58968000: system.memobj: cpu->mem Got request for addr 0x92da0
58968000: system.memobj: size 0x4
58968000: system.memobj: data_hex : 00000000 
58968000: system.memobj: data : 00000000000000000000000000000000 
58968000: system.memobj: hamming code : 0 
58968000: system.memobj: Enter Error Bit index: 3 
58968000: system.memobj: flip data : 00100000000000000000000000000000 
58968000: system.memobj: -------------------------------------
59297000: system.memobj: cpu->mem Got request for addr 0x92478
59297000: system.memobj: size 0x8
59297000: system.memobj: data_hex : 8024590000000000 
59297000: system.memobj: data : 1000000000100100010110010000000000000000000000000000000000000000 
59297000: system.memobj: hamming code : 3 
59297000: system.memobj: -------------------------------------
60067000: system.memobj: cpu->mem Got request for addr 0x94ac8
60067000: system.memobj: size 0x8
60067000: system.memobj: data_hex : 8B03410000000000 
60067000: system.memobj: data : 1000101100000011010000010000000000000000000000000000000000000000 
60067000: system.memobj: hamming code : 13 
60067000: system.memobj: -------------------------------------
60165000: system.memobj: cpu->mem Got request for addr 0x94a98
60165000: system.memobj: size 0x8
60165000: system.memobj: data_hex : 0000000000000000 
60165000: system.memobj: data : 0000000000000000000000000000000000000000000000000000000000000000 
60165000: system.memobj: hamming code : 0 
60165000: system.memobj: -------------------------------------
60284000: system.memobj: cpu->mem Got request for addr 0x94aa0
60284000: system.memobj: size 0x8
60284000: system.memobj: data_hex : 30EBFFFFFF7F0000 
60284000: system.memobj: data : 0011000011101011111111111111111111111111011111110000000000000000 
60284000: system.memobj: hamming code : 1 
60284000: system.memobj: -------------------------------------
60452000: system.memobj: cpu->mem Got request for addr 0x94aa8
60452000: system.memobj: size 0x8
60452000: system.memobj: data_hex : 0100000000000000 
60452000: system.memobj: data : 0000000100000000000000000000000000000000000000000000000000000000 
60452000: system.memobj: hamming code : 12 
60452000: system.memobj: -------------------------------------
60522000: system.memobj: cpu->mem Got request for addr 0x94ab0
60522000: system.memobj: size 0x8
60522000: system.memobj: data_hex : 0000000000000000 
60522000: system.memobj: data : 0000000000000000000000000000000000000000000000000000000000000000 
60522000: system.memobj: hamming code : 0 
60522000: system.memobj: -------------------------------------
60641000: system.memobj: cpu->mem Got request for addr 0x94ab8
60641000: system.memobj: size 0x8
60641000: system.memobj: data_hex : D8EDFFFFFF7F0000 
60641000: system.memobj: data : 1101100011101101111111111111111111111111011111110000000000000000 
60641000: system.memobj: hamming code : 8 
60641000: system.memobj: -------------------------------------
60760000: system.memobj: cpu->mem Got request for addr 0x94ac0
60760000: system.memobj: size 0x8
60760000: system.memobj: data_hex : 0000000000000000 
60760000: system.memobj: data : 0000000000000000000000000000000000000000000000000000000000000000 
60760000: system.memobj: hamming code : 0 
60760000: system.memobj: -------------------------------------
61187000: system.memobj: cpu->mem Got request for addr 0x94a90
61187000: system.memobj: size 0x8
61187000: system.memobj: data_hex : 50C7400000000000 
61187000: system.memobj: data : 0101000011000111010000000000000000000000000000000000000000000000 
61187000: system.memobj: hamming code : 2 
61187000: system.memobj: -------------------------------------
61453000: system.memobj: cpu->mem Got request for addr 0x94a88
61453000: system.memobj: size 0x8
61453000: system.memobj: data_hex : 1544410000000000 
61453000: system.memobj: data : 0001010101000100010000010000000000000000000000000000000000000000 
61453000: system.memobj: hamming code : 1 
61453000: system.memobj: Enter Error Bit index: 4 
61453000: system.memobj: flip data : 0000010101000100010000010000000000000000000000000000000000000000 
61453000: system.memobj: -------------------------------------
61523000: system.memobj: cpu->mem Got request for addr 0x94a78
61523000: system.memobj: size 0x8
61523000: system.memobj: data_hex : 0000000000000000 
61523000: system.memobj: data : 0000000000000000000000000000000000000000000000000000000000000000 
61523000: system.memobj: hamming code : 0 
61523000: system.memobj: -------------------------------------
61642000: system.memobj: cpu->mem Got request for addr 0x94a68
61642000: system.memobj: size 0x8
61642000: system.memobj: data_hex : 0000000000000000 
61642000: system.memobj: data : 0000000000000000000000000000000000000000000000000000000000000000 
61642000: system.memobj: hamming code : 0 
61642000: system.memobj: -------------------------------------
61810000: system.memobj: cpu->mem Got request for addr 0x94a70
61810000: system.memobj: size 0x8
61810000: system.memobj: data_hex : 0000000000000000 
61810000: system.memobj: data : 0000000000000000000000000000000000000000000000000000000000000000 
61810000: system.memobj: hamming code : 0 
61810000: system.memobj: -------------------------------------
61880000: system.memobj: cpu->mem Got request for addr 0x94a80
61880000: system.memobj: size 0x8
61880000: system.memobj: data_hex : 80C5400000000000 
61880000: system.memobj: data : 1000000011000101010000000000000000000000000000000000000000000000 
61880000: system.memobj: hamming code : 3 
61880000: system.memobj: -------------------------------------
62117000: system.memobj: mem->cpu Got response for addr 0x806f8
62117000: system.memobj: size 0x8
62117000: system.memobj: hamming code out: 0 
62117000: system.memobj: data_hex : 0000000000000000 
62117000: system.memobj: data : 0000000000000000000000000000000000000000000000000000000000000000 
62117000: system.memobj: fix data : 0000000000000000000000000000000000000000000000000000000000000000 
62117000: system.memobj: -------------------------------------
62754000: system.memobj: mem->cpu Got response for addr 0x92478
62754000: system.memobj: size 0x8
62754000: system.memobj: hamming code out: 3 
62754000: system.memobj: data_hex : 8024590000000000 
62754000: system.memobj: data : 1000000000100100010110010000000000000000000000000000000000000000 
62754000: system.memobj: fix data : 1000000000100100010110010000000000000000000000000000000000000000 
62754000: system.memobj: -------------------------------------
63264000: system.memobj: mem->cpu Got response for addr 0x92480
63264000: system.memobj: size 0x4
63264000: system.memobj: hamming code out: 0 
63264000: system.memobj: data_hex : 00000000 
63264000: system.memobj: data : 00000000000000000000000000000000 
63264000: system.memobj: fix data : 00000000000000000000000000000000 
63264000: system.memobj: -------------------------------------
63411000: system.memobj: cpu->mem Got request for addr 0x92480
63411000: system.memobj: size 0x4
63411000: system.memobj: data_hex : 01000000 
63411000: system.memobj: data : 00000001000000000000000000000000 
63411000: system.memobj: hamming code : 0 
63411000: system.memobj: -------------------------------------
63838000: system.memobj: cpu->mem Got request for addr 0x94a58
63838000: system.memobj: size 0x8
63838000: system.memobj: data_hex : F8F9400000000000 
63838000: system.memobj: data : 1111100011111001010000000000000000000000000000000000000000000000 
63838000: system.memobj: hamming code : 14 
63838000: system.memobj: -------------------------------------
63922000: system.memobj: cpu->mem Got request for addr 0x94a50
63922000: system.memobj: size 0x8
63922000: system.memobj: data_hex : 80C6400000000000 
63922000: system.memobj: data : 1000000011000110010000000000000000000000000000000000000000000000 
63922000: system.memobj: hamming code : 3 
63922000: system.memobj: -------------------------------------
63992000: system.memobj: cpu->mem Got request for addr 0x94a48
63992000: system.memobj: size 0x8
63992000: system.memobj: data_hex : 0000000000000000 
63992000: system.memobj: data : 0000000000000000000000000000000000000000000000000000000000000000 
63992000: system.memobj: hamming code : 0 
63992000: system.memobj: -------------------------------------
64062000: system.memobj: cpu->mem Got request for addr 0x94a40
64062000: system.memobj: size 0x8
64062000: system.memobj: data_hex : 80C5400000000000 
64062000: system.memobj: data : 1000000011000101010000000000000000000000000000000000000000000000 
64062000: system.memobj: hamming code : 3 
64062000: system.memobj: -------------------------------------
64230000: system.memobj: cpu->mem Got request for addr 0x94a38
64230000: system.memobj: size 0x8
64230000: system.memobj: data_hex : 2000000000000000 
64230000: system.memobj: data : 0010000000000000000000000000000000000000000000000000000000000000 
64230000: system.memobj: hamming code : 6 
64230000: system.memobj: Enter Error Bit index: 3 
64230000: system.memobj: flip data : 0000000000000000000000000000000000000000000000000000000000000000 
64230000: system.memobj: -------------------------------------
64300000: system.memobj: cpu->mem Got request for addr 0x94a30
64300000: system.memobj: size 0x8
64300000: system.memobj: data_hex : 8024590000000000 
64300000: system.memobj: data : 1000000000100100010110010000000000000000000000000000000000000000 
64300000: system.memobj: hamming code : 3 
64300000: system.memobj: -------------------------------------
64370000: system.memobj: cpu->mem Got request for addr 0x94a28
64370000: system.memobj: size 0x8
64370000: system.memobj: data_hex : 8024590000000000 
64370000: system.memobj: data : 1000000000100100010110010000000000000000000000000000000000000000 
64370000: system.memobj: hamming code : 3 
64370000: system.memobj: -------------------------------------
64783000: system.memobj: cpu->mem Got request for addr 0x94a20
64783000: system.memobj: size 0x8
64783000: system.memobj: data_hex : 2000000000000000 
64783000: system.memobj: data : 0010000000000000000000000000000000000000000000000000000000000000 
64783000: system.memobj: hamming code : 6 
64783000: system.memobj: -------------------------------------
65287000: system.memobj: mem->cpu Got response for addr 0x94a20
65287000: system.memobj: size 0x8
65287000: system.memobj: hamming code out: 6 
65287000: system.memobj: data_hex : 2000000000000000 
65287000: system.memobj: data : 0010000000000000000000000000000000000000000000000000000000000000 
65287000: system.memobj: fix data : 0010000000000000000000000000000000000000000000000000000000000000 
65287000: system.memobj: -------------------------------------
65385000: system.memobj: cpu->mem Got request for addr 0x94a20
65385000: system.memobj: size 0x8
65385000: system.memobj: data_hex : 3000000000000000 
65385000: system.memobj: data : 0011000000000000000000000000000000000000000000000000000000000000 
65385000: system.memobj: hamming code : 1 
65385000: system.memobj: -------------------------------------
65602000: system.memobj: mem->cpu Got response for addr 0x94a20
65602000: system.memobj: size 0x8
65602000: system.memobj: hamming code out: 1 
65602000: system.memobj: data_hex : 3000000000000000 
65602000: system.memobj: data : 0011000000000000000000000000000000000000000000000000000000000000 
65602000: system.memobj: fix data : 0011000000000000000000000000000000000000000000000000000000000000 
65602000: system.memobj: -------------------------------------
66596000: system.memobj: cpu->mem Got request for addr 0x949d8
66596000: system.memobj: size 0x8
66596000: system.memobj: data_hex : 94E0400000000000 
66596000: system.memobj: data : 1001010011100000010000000000000000000000000000000000000000000000 
66596000: system.memobj: hamming code : 14 
66596000: system.memobj: -------------------------------------
66666000: system.memobj: cpu->mem Got request for addr 0x949d0
66666000: system.memobj: size 0x8
66666000: system.memobj: data_hex : 0600000000000000 
66666000: system.memobj: data : 0000011000000000000000000000000000000000000000000000000000000000 
66666000: system.memobj: hamming code : 1 
66666000: system.memobj: -------------------------------------
66785000: system.memobj: cpu->mem Got request for addr 0x949c8
66785000: system.memobj: size 0x8
66785000: system.memobj: data_hex : 0000000000000000 
66785000: system.memobj: data : 0000000000000000000000000000000000000000000000000000000000000000 
66785000: system.memobj: hamming code : 0 
66785000: system.memobj: -------------------------------------
66904000: system.memobj: cpu->mem Got request for addr 0x949c0
66904000: system.memobj: size 0x8
66904000: system.memobj: data_hex : 8024590000000000 
66904000: system.memobj: data : 1000000000100100010110010000000000000000000000000000000000000000 
66904000: system.memobj: hamming code : 3 
66904000: system.memobj: -------------------------------------
66988000: system.memobj: cpu->mem Got request for addr 0x949b8
66988000: system.memobj: size 0x8
66988000: system.memobj: data_hex : 0000000000000000 
66988000: system.memobj: data : 0000000000000000000000000000000000000000000000000000000000000000 
66988000: system.memobj: hamming code : 0 
66988000: system.memobj: -------------------------------------
67058000: system.memobj: cpu->mem Got request for addr 0x949b0
67058000: system.memobj: size 0x8
67058000: system.memobj: data_hex : 8024590000000000 
67058000: system.memobj: data : 1000000000100100010110010000000000000000000000000000000000000000 
67058000: system.memobj: hamming code : 3 
67058000: system.memobj: Enter Error Bit index: 4 
67058000: system.memobj: flip data : 1001000000100100010110010000000000000000000000000000000000000000 
67058000: system.memobj: -------------------------------------
67128000: system.memobj: cpu->mem Got request for addr 0x949a8
67128000: system.memobj: size 0x8
67128000: system.memobj: data_hex : 8024590000000000 
67128000: system.memobj: data : 1000000000100100010110010000000000000000000000000000000000000000 
67128000: system.memobj: hamming code : 3 
67128000: system.memobj: -------------------------------------
67590000: system.memobj: mem->cpu Got response for addr 0x949a8
67590000: system.memobj: size 0x8
67590000: system.memobj: hamming code out: 3 
67590000: system.memobj: data_hex : 8024590000000000 
67590000: system.memobj: data : 1000000000100100010110010000000000000000000000000000000000000000 
67590000: system.memobj: fix data : 1000000000100100010110010000000000000000000000000000000000000000 
67590000: system.memobj: -------------------------------------
67688000: system.memobj: mem->cpu Got response for addr 0x949b0
67688000: system.memobj: size 0x8
67688000: system.memobj: hamming code out: 3 
67688000: system.memobj: data_hex : 9024590000000000 
67688000: system.memobj: data : 1001000000100100010110010000000000000000000000000000000000000000 
67688000: system.memobj: find Error Bit index : 4 
67688000: system.memobj: fix data : 1000000000100100010110010000000000000000000000000000000000000000 
67688000: system.memobj: -------------------------------------
67757000: system.memobj: mem->cpu Got response for addr 0x949b8
67757000: system.memobj: size 0x8
67757000: system.memobj: hamming code out: 0 
67757000: system.memobj: data_hex : 0000000000000000 
67757000: system.memobj: data : 0000000000000000000000000000000000000000000000000000000000000000 
67757000: system.memobj: fix data : 0000000000000000000000000000000000000000000000000000000000000000 
67757000: system.memobj: -------------------------------------
67855000: system.memobj: mem->cpu Got response for addr 0x949c0
67855000: system.memobj: size 0x8
67855000: system.memobj: hamming code out: 3 
67855000: system.memobj: data_hex : 8024590000000000 
67855000: system.memobj: data : 1000000000100100010110010000000000000000000000000000000000000000 
67855000: system.memobj: fix data : 1000000000100100010110010000000000000000000000000000000000000000 
67855000: system.memobj: -------------------------------------
67953000: system.memobj: mem->cpu Got response for addr 0x949c8
67953000: system.memobj: size 0x8
67953000: system.memobj: hamming code out: 0 
67953000: system.memobj: data_hex : 0000000000000000 
67953000: system.memobj: data : 0000000000000000000000000000000000000000000000000000000000000000 
67953000: system.memobj: fix data : 0000000000000000000000000000000000000000000000000000000000000000 
67953000: system.memobj: -------------------------------------
68051000: system.memobj: mem->cpu Got response for addr 0x949d0
68051000: system.memobj: size 0x8
68051000: system.memobj: hamming code out: 1 
68051000: system.memobj: data_hex : 0600000000000000 
68051000: system.memobj: data : 0000011000000000000000000000000000000000000000000000000000000000 
68051000: system.memobj: fix data : 0000011000000000000000000000000000000000000000000000000000000000 
68051000: system.memobj: -------------------------------------
68359000: system.memobj: cpu->mem Got request for addr 0x92530
68359000: system.memobj: size 0x8
68359000: system.memobj: data_hex : 1825590000000000 
68359000: system.memobj: data : 0001100000100101010110010000000000000000000000000000000000000000 
68359000: system.memobj: hamming code : 14 
68359000: system.memobj: -------------------------------------
68429000: system.memobj: cpu->mem Got request for addr 0x92528
68429000: system.memobj: size 0x8
68429000: system.memobj: data_hex : 1825590000000000 
68429000: system.memobj: data : 0001100000100101010110010000000000000000000000000000000000000000 
68429000: system.memobj: hamming code : 14 
68429000: system.memobj: -------------------------------------
68646000: system.memobj: cpu->mem Got request for addr 0x92540
68646000: system.memobj: size 0x8
68646000: system.memobj: data_hex : 2825590000000000 
68646000: system.memobj: data : 0010100000100101010110010000000000000000000000000000000000000000 
68646000: system.memobj: hamming code : 15 
68646000: system.memobj: -------------------------------------
68716000: system.memobj: cpu->mem Got request for addr 0x92538
68716000: system.memobj: size 0x8
68716000: system.memobj: data_hex : 2825590000000000 
68716000: system.memobj: data : 0010100000100101010110010000000000000000000000000000000000000000 
68716000: system.memobj: hamming code : 15 
68716000: system.memobj: -------------------------------------
68933000: system.memobj: cpu->mem Got request for addr 0x92550
68933000: system.memobj: size 0x8
68933000: system.memobj: data_hex : 3825590000000000 
68933000: system.memobj: data : 0011100000100101010110010000000000000000000000000000000000000000 
68933000: system.memobj: hamming code : 8 
68933000: system.memobj: -------------------------------------
69003000: system.memobj: cpu->mem Got request for addr 0x92548
69003000: system.memobj: size 0x8
69003000: system.memobj: data_hex : 3825590000000000 
69003000: system.memobj: data : 0011100000100101010110010000000000000000000000000000000000000000 
69003000: system.memobj: hamming code : 8 
69003000: system.memobj: -------------------------------------
69234000: system.memobj: cpu->mem Got request for addr 0x92560
69234000: system.memobj: size 0x8
69234000: system.memobj: data_hex : 4825590000000000 
69234000: system.memobj: data : 0100100000100101010110010000000000000000000000000000000000000000 
69234000: system.memobj: hamming code : 12 
69234000: system.memobj: -------------------------------------
69304000: system.memobj: cpu->mem Got request for addr 0x92558
69304000: system.memobj: size 0x8
69304000: system.memobj: data_hex : 4825590000000000 
69304000: system.memobj: data : 0100100000100101010110010000000000000000000000000000000000000000 
69304000: system.memobj: hamming code : 12 
69304000: system.memobj: -------------------------------------
69521000: system.memobj: cpu->mem Got request for addr 0x92570
69521000: system.memobj: size 0x8
69521000: system.memobj: data_hex : 5825590000000000 
69521000: system.memobj: data : 0101100000100101010110010000000000000000000000000000000000000000 
69521000: system.memobj: hamming code : 11 
69521000: system.memobj: Enter Error Bit index: 4 
69521000: system.memobj: flip data : 0100100000100101010110010000000000000000000000000000000000000000 
69521000: system.memobj: -------------------------------------
69591000: system.memobj: cpu->mem Got request for addr 0x92568
69591000: system.memobj: size 0x8
69591000: system.memobj: data_hex : 5825590000000000 
69591000: system.memobj: data : 0101100000100101010110010000000000000000000000000000000000000000 
69591000: system.memobj: hamming code : 11 
69591000: system.memobj: -------------------------------------
69808000: system.memobj: cpu->mem Got request for addr 0x92580
69808000: system.memobj: size 0x8
69808000: system.memobj: data_hex : 6825590000000000 
69808000: system.memobj: data : 0110100000100101010110010000000000000000000000000000000000000000 
69808000: system.memobj: hamming code : 10 
69808000: system.memobj: -------------------------------------
69878000: system.memobj: cpu->mem Got request for addr 0x92578
69878000: system.memobj: size 0x8
69878000: system.memobj: data_hex : 6825590000000000 
69878000: system.memobj: data : 0110100000100101010110010000000000000000000000000000000000000000 
69878000: system.memobj: hamming code : 10 
69878000: system.memobj: -------------------------------------
70109000: system.memobj: cpu->mem Got request for addr 0x92590
70109000: system.memobj: size 0x8
70109000: system.memobj: data_hex : 7825590000000000 
70109000: system.memobj: data : 0111100000100101010110010000000000000000000000000000000000000000 
70109000: system.memobj: hamming code : 13 
70109000: system.memobj: -------------------------------------
70413000: system.memobj: cpu->mem Got request for addr 0x92588
70413000: system.memobj: size 0x8
70413000: system.memobj: data_hex : 7825590000000000 
70413000: system.memobj: data : 0111100000100101010110010000000000000000000000000000000000000000 
70413000: system.memobj: hamming code : 13 
70413000: system.memobj: -------------------------------------
70630000: system.memobj: cpu->mem Got request for addr 0x925a0
[...]
478248000: system.memobj: Enter Error Bit index: 1 
478248000: system.memobj: flip data : 00000110001010101010110111111011 
478248000: system.memobj: -------------------------------------
478710000: system.memobj: cpu->mem Got request for addr 0x94b18
478710000: system.memobj: size 0x8
478710000: system.memobj: data_hex : 43B9400000000000 
478710000: system.memobj: data : 0100001110111001010000000000000000000000000000000000000000000000 
478710000: system.memobj: hamming code : 2 
478710000: system.memobj: -------------------------------------
478780000: system.memobj: cpu->mem Got request for addr 0x94af8
478780000: system.memobj: size 0x8
478780000: system.memobj: data_hex : E001580000000000 
478780000: system.memobj: data : 1110000000000001010110000000000000000000000000000000000000000000 
478780000: system.memobj: hamming code : 0 
478780000: system.memobj: -------------------------------------
478899000: system.memobj: cpu->mem Got request for addr 0x94b00
478899000: system.memobj: size 0x8
478899000: system.memobj: data_hex : 0000000000000000 
478899000: system.memobj: data : 0000000000000000000000000000000000000000000000000000000000000000 
478899000: system.memobj: hamming code : 0 
478899000: system.memobj: -------------------------------------
479067000: system.memobj: cpu->mem Got request for addr 0x94b08
479067000: system.memobj: size 0x8
479067000: system.memobj: data_hex : 0000000000000000 
479067000: system.memobj: data : 0000000000000000000000000000000000000000000000000000000000000000 
479067000: system.memobj: hamming code : 0 
479067000: system.memobj: -------------------------------------
479151000: system.memobj: cpu->mem Got request for addr 0x94b10
479151000: system.memobj: size 0x8
479151000: system.memobj: data_hex : 0100000000000000 
479151000: system.memobj: data : 0000000100000000000000000000000000000000000000000000000000000000 
479151000: system.memobj: hamming code : 12 
479151000: system.memobj: -------------------------------------
479339000: system.memobj: mem->cpu Got response for addr 0x80218
479339000: system.memobj: size 0x8
479339000: system.memobj: hamming code out: 0 
479339000: system.memobj: data_hex : 00D0FFF7FF7F0000 
479339000: system.memobj: data : 0000000011010000111111111111011111111111011111110000000000000000 
479339000: system.memobj: fix data : 0000000011010000111111111111011111111111011111110000000000000000 
479339000: system.memobj: -------------------------------------
479702000: system.memobj: mem->cpu Got response for addr 0x801e0
479702000: system.memobj: size 0x4
479702000: system.memobj: hamming code out: 3 
479702000: system.memobj: data_hex : 062AADFB 
479702000: system.memobj: data : 00000110001010101010110111111011 
479702000: system.memobj: find Error Bit index : 1 
479702000: system.memobj: fix data : 10000110001010101010110111111011 
479702000: system.memobj: -------------------------------------
479947000: system.memobj: mem->cpu Got response for addr 0x80220
479947000: system.memobj: size 0x8
479947000: system.memobj: hamming code out: 0 
479947000: system.memobj: data_hex : 00F0FFF7FF7F0000 
479947000: system.memobj: data : 0000000011110000111111111111011111111111011111110000000000000000 
479947000: system.memobj: fix data : 0000000011110000111111111111011111111111011111110000000000000000 
479947000: system.memobj: -------------------------------------
480255000: system.memobj: cpu->mem Got request for addr 0x94ae8
480255000: system.memobj: size 0x8
480255000: system.memobj: data_hex : BDB6400000000000 
480255000: system.memobj: data : 1011110110110110010000000000000000000000000000000000000000000000 
480255000: system.memobj: hamming code : 13 
480255000: system.memobj: -------------------------------------
480724000: system.memobj: mem->cpu Got response for addr 0x94ae8
480724000: system.memobj: size 0x8
480724000: system.memobj: hamming code out: 13 
480724000: system.memobj: data_hex : BDB6400000000000 
480724000: system.memobj: data : 1011110110110110010000000000000000000000000000000000000000000000 
480724000: system.memobj: fix data : 1011110110110110010000000000000000000000000000000000000000000000 
480724000: system.memobj: -------------------------------------
480842000: system.memobj: mem->cpu Got response for addr 0x801e0
480842000: system.memobj: size 0x4
480842000: system.memobj: hamming code out: 3 
480842000: system.memobj: data_hex : 062AADFB 
480842000: system.memobj: data : 00000110001010101010110111111011 
480842000: system.memobj: find Error Bit index : 1 
480842000: system.memobj: fix data : 10000110001010101010110111111011 
480842000: system.memobj: -------------------------------------
480989000: system.memobj: cpu->mem Got request for addr 0x80218
480989000: system.memobj: size 0x8
480989000: system.memobj: data_hex : 6302580000000000 
480989000: system.memobj: data : 0110001100000010010110000000000000000000000000000000000000000000 
480989000: system.memobj: hamming code : 4 
480989000: system.memobj: -------------------------------------
481059000: system.memobj: cpu->mem Got request for addr 0x80220
481059000: system.memobj: size 0x8
481059000: system.memobj: data_hex : 6402580000000000 
481059000: system.memobj: data : 0110010000000010010110000000000000000000000000000000000000000000 
481059000: system.memobj: hamming code : 9 
481059000: system.memobj: -------------------------------------
481227000: system.memobj: cpu->mem Got request for addr 0x801e0
481227000: system.memobj: size 0x4
481227000: system.memobj: data_hex : 872AADFB 
481227000: system.memobj: data : 10000111001010101010110111111011 
481227000: system.memobj: hamming code : 3 
481227000: system.memobj: -------------------------------------
481395000: system.memobj: mem->cpu Got response for addr 0x94af8
481395000: system.memobj: size 0x8
481395000: system.memobj: hamming code out: 0 
481395000: system.memobj: data_hex : E001580000000000 
481395000: system.memobj: data : 1110000000000001010110000000000000000000000000000000000000000000 
481395000: system.memobj: fix data : 1110000000000001010110000000000000000000000000000000000000000000 
481395000: system.memobj: -------------------------------------
481507000: system.memobj: mem->cpu Got response for addr 0x94b00
481507000: system.memobj: size 0x8
481507000: system.memobj: hamming code out: 0 
481507000: system.memobj: data_hex : 0000000000000000 
481507000: system.memobj: data : 0000000000000000000000000000000000000000000000000000000000000000 
481507000: system.memobj: fix data : 0000000000000000000000000000000000000000000000000000000000000000 
481507000: system.memobj: -------------------------------------
481654000: system.memobj: mem->cpu Got response for addr 0x94b08
481654000: system.memobj: size 0x8
481654000: system.memobj: hamming code out: 0 
481654000: system.memobj: data_hex : 0000000000000000 
481654000: system.memobj: data : 0000000000000000000000000000000000000000000000000000000000000000 
481654000: system.memobj: fix data : 0000000000000000000000000000000000000000000000000000000000000000 
481654000: system.memobj: -------------------------------------
481801000: system.memobj: mem->cpu Got response for addr 0x94b10
481801000: system.memobj: size 0x8
481801000: system.memobj: hamming code out: 12 
481801000: system.memobj: data_hex : 0100000000000000 
481801000: system.memobj: data : 0000000100000000000000000000000000000000000000000000000000000000 
481801000: system.memobj: fix data : 0000000100000000000000000000000000000000000000000000000000000000 
481801000: system.memobj: -------------------------------------
481948000: system.memobj: mem->cpu Got response for addr 0x94b18
481948000: system.memobj: size 0x8
481948000: system.memobj: hamming code out: 2 
481948000: system.memobj: data_hex : 43B9400000000000 
481948000: system.memobj: data : 0100001110111001010000000000000000000000000000000000000000000000 
481948000: system.memobj: fix data : 0100001110111001010000000000000000000000000000000000000000000000 
481948000: system.memobj: -------------------------------------
482046000: system.memobj: cpu->mem Got request for addr 0x80210
482046000: system.memobj: size 0x8
482046000: system.memobj: data_hex : 0000000000000000 
482046000: system.memobj: data : 0000000000000000000000000000000000000000000000000000000000000000 
482046000: system.memobj: hamming code : 0 
482046000: system.memobj: Enter Error Bit index: 1 
482046000: system.memobj: flip data : 1000000000000000000000000000000000000000000000000000000000000000 
482046000: system.memobj: -------------------------------------
482165000: system.memobj: cpu->mem Got request for addr 0x80208
482165000: system.memobj: size 0x8
482165000: system.memobj: data_hex : 0000000000000000 
482165000: system.memobj: data : 0000000000000000000000000000000000000000000000000000000000000000 
482165000: system.memobj: hamming code : 0 
482165000: system.memobj: -------------------------------------
482333000: system.memobj: cpu->mem Got request for addr 0x80200
482333000: system.memobj: size 0x8
482333000: system.memobj: data_hex : 0000000000000000 
482333000: system.memobj: data : 0000000000000000000000000000000000000000000000000000000000000000 
482333000: system.memobj: hamming code : 0 
482333000: system.memobj: -------------------------------------
482452000: system.memobj: cpu->mem Got request for addr 0x801f0
482452000: system.memobj: size 0x8
482452000: system.memobj: data_hex : 0000000000000000 
482452000: system.memobj: data : 0000000000000000000000000000000000000000000000000000000000000000 
482452000: system.memobj: hamming code : 0 
482452000: system.memobj: -------------------------------------
482585000: system.memobj: cpu->mem Got request for addr 0x801e8
482585000: system.memobj: size 0x8
482585000: system.memobj: data_hex : 0000000000000000 
482585000: system.memobj: data : 0000000000000000000000000000000000000000000000000000000000000000 
482585000: system.memobj: hamming code : 0 
482585000: system.memobj: -------------------------------------
482704000: system.memobj: cpu->mem Got request for addr 0x801f8
482704000: system.memobj: size 0x8
482704000: system.memobj: data_hex : 0000000000000000 
482704000: system.memobj: data : 0000000000000000000000000000000000000000000000000000000000000000 
482704000: system.memobj: hamming code : 0 
482704000: system.memobj: -------------------------------------
483147000: system.memobj: mem->cpu Got response for addr 0x94b20
483147000: system.memobj: size 0x8
483147000: system.memobj: hamming code out: 0 
483147000: system.memobj: data_hex : E001580000000000 
483147000: system.memobj: data : 1110000000000001010110000000000000000000000000000000000000000000 
483147000: system.memobj: fix data : 1110000000000001010110000000000000000000000000000000000000000000 
483147000: system.memobj: -------------------------------------
483245000: system.memobj: mem->cpu Got response for addr 0x94b28
483245000: system.memobj: size 0x8
483245000: system.memobj: hamming code out: 0 
483245000: system.memobj: data_hex : 0000000000000000 
483245000: system.memobj: data : 0000000000000000000000000000000000000000000000000000000000000000 
483245000: system.memobj: fix data : 0000000000000000000000000000000000000000000000000000000000000000 
483245000: system.memobj: -------------------------------------
483441000: system.memobj: mem->cpu Got response for addr 0x94b30
483441000: system.memobj: size 0x8
483441000: system.memobj: hamming code out: 10 
483441000: system.memobj: data_hex : 32ECFFFFFF7F0000 
483441000: system.memobj: data : 0011001011101100111111111111111111111111011111110000000000000000 
483441000: system.memobj: fix data : 0011001011101100111111111111111111111111011111110000000000000000 
483441000: system.memobj: -------------------------------------
483608000: system.memobj: mem->cpu Got response for addr 0x94b38
483608000: system.memobj: size 0x8
483608000: system.memobj: hamming code out: 4 
483608000: system.memobj: data_hex : D97C420000000000 
483608000: system.memobj: data : 1101100101111100010000100000000000000000000000000000000000000000 
483608000: system.memobj: fix data : 1101100101111100010000100000000000000000000000000000000000000000 
483608000: system.memobj: -------------------------------------
483838000: system.memobj: mem->cpu Got response for addr 0x80218
483838000: system.memobj: size 0x8
483838000: system.memobj: hamming code out: 4 
483838000: system.memobj: data_hex : 6302580000000000 
483838000: system.memobj: data : 0110001100000010010110000000000000000000000000000000000000000000 
483838000: system.memobj: fix data : 0110001100000010010110000000000000000000000000000000000000000000 
483838000: system.memobj: -------------------------------------
483985000: system.memobj: cpu->mem Got request for addr 0x80210
483985000: system.memobj: size 0x8
483985000: system.memobj: data_hex : 6302580000000000 
483985000: system.memobj: data : 0110001100000010010110000000000000000000000000000000000000000000 
483985000: system.memobj: hamming code : 4 
483985000: system.memobj: -------------------------------------
484055000: system.memobj: cpu->mem Got request for addr 0x80208
484055000: system.memobj: size 0x8
484055000: system.memobj: data_hex : 6302580000000000 
484055000: system.memobj: data : 0110001100000010010110000000000000000000000000000000000000000000 
484055000: system.memobj: hamming code : 4 
484055000: system.memobj: -------------------------------------
484174000: system.memobj: cpu->mem Got request for addr 0x80200
484174000: system.memobj: size 0x8
484174000: system.memobj: data_hex : 6302580000000000 
484174000: system.memobj: data : 0110001100000010010110000000000000000000000000000000000000000000 
484174000: system.memobj: hamming code : 4 
484174000: system.memobj: -------------------------------------
484244000: system.memobj: cpu->mem Got request for addr 0x801f8
484244000: system.memobj: size 0x8
484244000: system.memobj: data_hex : 6302580000000000 
484244000: system.memobj: data : 0110001100000010010110000000000000000000000000000000000000000000 
484244000: system.memobj: hamming code : 4 
484244000: system.memobj: -------------------------------------
484363000: system.memobj: cpu->mem Got request for addr 0x801e8
484363000: system.memobj: size 0x8
484363000: system.memobj: data_hex : 6302580000000000 
484363000: system.memobj: data : 0110001100000010010110000000000000000000000000000000000000000000 
484363000: system.memobj: hamming code : 4 
484363000: system.memobj: Enter Error Bit index: 4 
484363000: system.memobj: flip data : 0111001100000010010110000000000000000000000000000000000000000000 
484363000: system.memobj: -------------------------------------
484433000: system.memobj: cpu->mem Got request for addr 0x801f0
484433000: system.memobj: size 0x8
484433000: system.memobj: data_hex : 6302580000000000 
484433000: system.memobj: data : 0110001100000010010110000000000000000000000000000000000000000000 
484433000: system.memobj: hamming code : 4 
484433000: system.memobj: -------------------------------------
484552000: system.memobj: mem->cpu Got response for addr 0x94b40
484552000: system.memobj: size 0x8
484552000: system.memobj: hamming code out: 0 
484552000: system.memobj: data_hex : E801580000000000 
484552000: system.memobj: data : 1110100000000001010110000000000000000000000000000000000000000000 
484552000: system.memobj: find Error Bit index : 5 
484552000: system.memobj: fix data : 1110000000000001010110000000000000000000000000000000000000000000 
484552000: system.memobj: -------------------------------------
484713000: system.memobj: mem->cpu Got response for addr 0x94b48
484713000: system.memobj: size 0x8
484713000: system.memobj: hamming code out: 14 
484713000: system.memobj: data_hex : 51C0400000000000 
484713000: system.memobj: data : 0101000111000000010000000000000000000000000000000000000000000000 
484713000: system.memobj: fix data : 0101000111000000010000000000000000000000000000000000000000000000 
484713000: system.memobj: -------------------------------------
484874000: system.memobj: cpu->mem Got request for addr 0x80288
484874000: system.memobj: size 0x4
484874000: system.memobj: data_hex : FFFFFFFF 
484874000: system.memobj: data : 11111111111111111111111111111111 
484874000: system.memobj: hamming code : 7 
484874000: system.memobj: -------------------------------------
485644000: system.memobj: cpu->mem Got request for addr 0x80508
485644000: system.memobj: size 0x4
485644000: system.memobj: data_hex : FFFFFFFF 
485644000: system.memobj: data : 11111111111111111111111111111111 
485644000: system.memobj: hamming code : 7 
485644000: system.memobj: -------------------------------------
486120000: system.memobj: mem->cpu Got response for addr 0x94b58
486120000: system.memobj: size 0x8
486120000: system.memobj: hamming code out: 14 
486120000: system.memobj: data_hex : F863470000000000 
486120000: system.memobj: data : 1111100001100011010001110000000000000000000000000000000000000000 
486120000: system.memobj: fix data : 1111100001100011010001110000000000000000000000000000000000000000 
486120000: system.memobj: -------------------------------------
486218000: system.memobj: mem->cpu Got response for addr 0x94b60
486218000: system.memobj: size 0x8
486218000: system.memobj: hamming code out: 0 
486218000: system.memobj: data_hex : 0000000000000000 
486218000: system.memobj: data : 0000000000000000000000000000000000000000000000000000000000000000 
486218000: system.memobj: fix data : 0000000000000000000000000000000000000000000000000000000000000000 
486218000: system.memobj: -------------------------------------
486316000: system.memobj: mem->cpu Got response for addr 0x94b68
486316000: system.memobj: size 0x8
486316000: system.memobj: hamming code out: 11 
486316000: system.memobj: data_hex : 27A9400000000000 
486316000: system.memobj: data : 0010011110101001010000000000000000000000000000000000000000000000 
486316000: system.memobj: fix data : 0010011110101001010000000000000000000000000000000000000000000000 
486316000: system.memobj: -------------------------------------
486708000: system.memobj: cpu->mem Got request for addr 0x94b68
486708000: system.memobj: size 0x8
486708000: system.memobj: data_hex : 3BA9400000000000 
486708000: system.memobj: data : 0011101110101001010000000000000000000000000000000000000000000000 
486708000: system.memobj: hamming code : 15 
486708000: system.memobj: -------------------------------------
486792000: system.memobj: cpu->mem Got request for addr 0x94b60
486792000: system.memobj: size 0x8
486792000: system.memobj: data_hex : 0100000000000000 
486792000: system.memobj: data : 0000000100000000000000000000000000000000000000000000000000000000 
486792000: system.memobj: hamming code : 12 
486792000: system.memobj: -------------------------------------
486911000: system.memobj: cpu->mem Got request for addr 0x94b58
486911000: system.memobj: size 0x8
486911000: system.memobj: data_hex : 32ECFFFFFF7F0000 
486911000: system.memobj: data : 0011001011101100111111111111111111111111011111110000000000000000 
486911000: system.memobj: hamming code : 10 
486911000: system.memobj: -------------------------------------
487030000: system.memobj: cpu->mem Got request for addr 0x94b50
487030000: system.memobj: size 0x8
487030000: system.memobj: data_hex : 0000000000000000 
487030000: system.memobj: data : 0000000000000000000000000000000000000000000000000000000000000000 
487030000: system.memobj: hamming code : 0 
487030000: system.memobj: -------------------------------------
487149000: system.memobj: cpu->mem Got request for addr 0x94b48
487149000: system.memobj: size 0x8
487149000: system.memobj: data_hex : 0064470000000000 
487149000: system.memobj: data : 0000000001100100010001110000000000000000000000000000000000000000 
487149000: system.memobj: hamming code : 0 
487149000: system.memobj: -------------------------------------
time cost : 0.137144 seconds
Exiting @ tick 487513000 because exiting with last active thread context
