Global frequency set at 1000000000000 ticks per second
gem5 Simulator System.  https://www.gem5.org
gem5 is copyrighted software; use the --copyright option for details.

gem5 version 23.1.0.0
gem5 compiled May 11 2024 01:31:06
gem5 started May 11 2024 02:04:00
gem5 executing on bakery-Virtual-Machine, pid 130317
command line: build/X86/gem5.opt --debug-flags=ECCMemobj configs/ncu_lab1_config/ecc_memobj.py

Beginning simulation!
  77000: system.memobj: mem->cpu Got response for addr 0x190 , 400
  77000: system.memobj: size 0x8
  77000: system.memobj: id 94061710356144
  77000: system.memobj: data_hex : 4831ED4989D15E48 
  77000: system.memobj: data : 0100100000110001111011010100100110001001110100010101111001001000 
  77000: system.memobj: fix data : 0100100000110001111011010100100110001001110100010101111001001000 
  77000: system.memobj: -------------------------------------
 126000: system.memobj: mem->cpu Got response for addr 0x190 , 400
 126000: system.memobj: size 0x8
 126000: system.memobj: id 94061710354992
 126000: system.memobj: data_hex : 4831ED4989D15E48 
 126000: system.memobj: data : 0100100000110001111011010100100110001001110100010101111001001000 
 126000: system.memobj: fix data : 0100100000110001111011010100100110001001110100010101111001001000 
 126000: system.memobj: -------------------------------------
 175000: system.memobj: mem->cpu Got response for addr 0x190 , 400
 175000: system.memobj: size 0x8
 175000: system.memobj: id 94061710356144
 175000: system.memobj: data_hex : 4831ED4989D15E48 
 175000: system.memobj: data : 0100100000110001111011010100100110001001110100010101111001001000 
 175000: system.memobj: fix data : 0100100000110001111011010100100110001001110100010101111001001000 
 175000: system.memobj: -------------------------------------
 238000: system.memobj: mem->cpu Got response for addr 0x94dd0 , 609744
 238000: system.memobj: size 0x8
 238000: system.memobj: id 94061710355280
 238000: system.memobj: data_hex : 0100000000000000 
 238000: system.memobj: data : 0000000100000000000000000000000000000000000000000000000000000000 
 238000: system.memobj: fix data : 0000000100000000000000000000000000000000000000000000000000000000 
 238000: system.memobj: -------------------------------------
 287000: system.memobj: mem->cpu Got response for addr 0x190 , 400
 287000: system.memobj: size 0x8
 287000: system.memobj: id 94061710355280
 287000: system.memobj: data_hex : 4831ED4989D15E48 
 287000: system.memobj: data : 0100100000110001111011010100100110001001110100010101111001001000 
 287000: system.memobj: fix data : 0100100000110001111011010100100110001001110100010101111001001000 
 287000: system.memobj: -------------------------------------
 336000: system.memobj: mem->cpu Got response for addr 0x198 , 408
 336000: system.memobj: size 0x8
 336000: system.memobj: id 94061710356144
 336000: system.memobj: data_hex : 89E24883E4F05054 
 336000: system.memobj: data : 1000100111100010010010001000001111100100111100000101000001010100 
 336000: system.memobj: fix data : 1000100111100010010010001000001111100100111100000101000001010100 
 336000: system.memobj: -------------------------------------
 385000: system.memobj: mem->cpu Got response for addr 0x198 , 408
 385000: system.memobj: size 0x8
 385000: system.memobj: id 94061710355280
 385000: system.memobj: data_hex : 89E24883E4F05054 
 385000: system.memobj: data : 1000100111100010010010001000001111100100111100000101000001010100 
 385000: system.memobj: fix data : 1000100111100010010010001000001111100100111100000101000001010100 
 385000: system.memobj: -------------------------------------
 434000: system.memobj: mem->cpu Got response for addr 0x198 , 408
 434000: system.memobj: size 0x8
 434000: system.memobj: id 94061710356144
 434000: system.memobj: data_hex : 89E24883E4F05054 
 434000: system.memobj: data : 1000100111100010010010001000001111100100111100000101000001010100 
 434000: system.memobj: fix data : 1000100111100010010010001000001111100100111100000101000001010100 
 434000: system.memobj: -------------------------------------
 434000: system.memobj: cpu->mem Got request for addr 0x94dc8 , 609736
 434000: system.memobj: size 0x8
 434000: system.memobj: id 94061710356432
 434000: system.memobj: data_hex : 0000000000000000 
 434000: system.memobj: data : 0000000000000000000000000000000000000000000000000000000000000000 
 434000: system.memobj: hamming code addr: 609736 
 434000: system.memobj: hamming code : 0 
 434000: system.memobj: hamming code addr: 609744 
 434000: system.memobj: hamming code : 0 
 434000: system.memobj: hamming code addr: 609752 
 434000: system.memobj: hamming code : 0 
 434000: system.memobj: hamming code addr: 609760 
 434000: system.memobj: hamming code : 0 
 434000: system.memobj: hamming code addr: 609768 
 434000: system.memobj: hamming code : 0 
 434000: system.memobj: hamming code addr: 609776 
 434000: system.memobj: hamming code : 0 
 434000: system.memobj: hamming code addr: 609784 
 434000: system.memobj: hamming code : 0 
 434000: system.memobj: hamming code addr: 609792 
 434000: system.memobj: hamming code : 0 
 434000: system.memobj: Enter Error Bit index: 8 
 434000: system.memobj: flip data : 0000000100000000000000000000000000000000000000000000000000000000 
 434000: system.memobj: -------------------------------------
 504000: system.memobj: mem->cpu Got response for addr 0x198 , 408
 504000: system.memobj: size 0x8
 504000: system.memobj: id 94061710356432
 504000: system.memobj: data_hex : 89E24883E4F05054 
 504000: system.memobj: data : 1000100111100010010010001000001111100100111100000101000001010100 
 504000: system.memobj: fix data : 1000100111100010010010001000001111100100111100000101000001010100 
 504000: system.memobj: -------------------------------------
 504000: system.memobj: cpu->mem Got request for addr 0x94dc0 , 609728
 504000: system.memobj: size 0x8
 504000: system.memobj: id 94061710356720
 504000: system.memobj: data_hex : C8EDFFFFFF7F0000 
 504000: system.memobj: data : 1100100011101101111111111111111111111111011111110000000000000000 
 504000: system.memobj: hamming code addr: 609728 
 504000: system.memobj: hamming code : 15 
 504000: system.memobj: hamming code addr: 609736 
 504000: system.memobj: hamming code : 15 
 504000: system.memobj: hamming code addr: 609744 
 504000: system.memobj: hamming code : 3 
 504000: system.memobj: hamming code addr: 609752 
 504000: system.memobj: hamming code : 3 
 504000: system.memobj: hamming code addr: 609760 
 504000: system.memobj: hamming code : 3 
 504000: system.memobj: hamming code addr: 609768 
 504000: system.memobj: hamming code : 0 
 504000: system.memobj: hamming code addr: 609776 
 504000: system.memobj: hamming code : 0 
 504000: system.memobj: hamming code addr: 609784 
 504000: system.memobj: hamming code : 0 
 504000: system.memobj: Enter Error Bit index: 7 
 504000: system.memobj: flip data : 1100101011101101111111111111111111111111011111110000000000000000 
 504000: system.memobj: -------------------------------------
 574000: system.memobj: mem->cpu Got response for addr 0x1a0 , 416
 574000: system.memobj: size 0x8
 574000: system.memobj: id 94061710356720
 574000: system.memobj: data_hex : 49C7C060A0400048 
 574000: system.memobj: data : 0100100111000111110000000110000010100000010000000000000001001000 
 574000: system.memobj: fix data : 0100100111000111110000000110000010100000010000000000000001001000 
 574000: system.memobj: -------------------------------------
 623000: system.memobj: mem->cpu Got response for addr 0x1a0 , 416
 623000: system.memobj: size 0x8
 623000: system.memobj: id 94061710356432
 623000: system.memobj: data_hex : 49C7C060A0400048 
 623000: system.memobj: data : 0100100111000111110000000110000010100000010000000000000001001000 
 623000: system.memobj: fix data : 0100100111000111110000000110000010100000010000000000000001001000 
 623000: system.memobj: -------------------------------------
 672000: system.memobj: mem->cpu Got response for addr 0x1a8 , 424
 672000: system.memobj: size 0x8
 672000: system.memobj: id 94061710356720
 672000: system.memobj: data_hex : C7C1F09F400048C7 
 672000: system.memobj: data : 1100011111000001111100001001111101000000000000000100100011000111 
 672000: system.memobj: fix data : 1100011111000001111100001001111101000000000000000100100011000111 
 672000: system.memobj: -------------------------------------
 721000: system.memobj: mem->cpu Got response for addr 0x1a8 , 424
 721000: system.memobj: size 0x8
 721000: system.memobj: id 94061710356432
 721000: system.memobj: data_hex : C7C1F09F400048C7 
 721000: system.memobj: data : 1100011111000001111100001001111101000000000000000100100011000111 
 721000: system.memobj: fix data : 1100011111000001111100001001111101000000000000000100100011000111 
 721000: system.memobj: -------------------------------------
 770000: system.memobj: mem->cpu Got response for addr 0x1b0 , 432
 770000: system.memobj: size 0x8
 770000: system.memobj: id 94061710356720
 770000: system.memobj: data_hex : C774024000E84698 
 770000: system.memobj: data : 1100011101110100000000100100000000000000111010000100011010011000 
 770000: system.memobj: fix data : 1100011101110100000000100100000000000000111010000100011010011000 
 770000: system.memobj: -------------------------------------
 819000: system.memobj: mem->cpu Got response for addr 0x1b0 , 432
 819000: system.memobj: size 0x8
 819000: system.memobj: id 94061710356432
 819000: system.memobj: data_hex : C774024000E84698 
 819000: system.memobj: data : 1100011101110100000000100100000000000000111010000100011010011000 
 819000: system.memobj: fix data : 1100011101110100000000100100000000000000111010000100011010011000 
 819000: system.memobj: -------------------------------------
 868000: system.memobj: mem->cpu Got response for addr 0x1b8 , 440
 868000: system.memobj: size 0x8
 868000: system.memobj: id 94061710356720
 868000: system.memobj: data_hex : 0000F4904883EC08 
 868000: system.memobj: data : 0000000000000000111101001001000001001000100000111110110000001000 
 868000: system.memobj: fix data : 0000000000000000111101001001000001001000100000111110110000001000 
 868000: system.memobj: -------------------------------------
 868000: system.memobj: cpu->mem Got request for addr 0x94db8 , 609720
 868000: system.memobj: size 0x8
 868000: system.memobj: id 94061710357008
 868000: system.memobj: data_hex : BA01400000000000 
 868000: system.memobj: data : 1011101000000001010000000000000000000000000000000000000000000000 
 868000: system.memobj: hamming code addr: 609720 
 868000: system.memobj: hamming code : 0 
 868000: system.memobj: hamming code addr: 609728 
 868000: system.memobj: hamming code : 12 
 868000: system.memobj: hamming code addr: 609736 
 868000: system.memobj: hamming code : 5 
 868000: system.memobj: hamming code addr: 609744 
 868000: system.memobj: hamming code : 0 
 868000: system.memobj: hamming code addr: 609752 
 868000: system.memobj: hamming code : 0 
 868000: system.memobj: hamming code addr: 609760 
 868000: system.memobj: hamming code : 0 
 868000: system.memobj: hamming code addr: 609768 
 868000: system.memobj: hamming code : 0 
 868000: system.memobj: hamming code addr: 609776 
 868000: system.memobj: hamming code : 0 
 868000: system.memobj: Enter Error Bit index: 2 
 868000: system.memobj: flip data : 1111101000000001010000000000000000000000000000000000000000000000 
 868000: system.memobj: -------------------------------------
 952000: system.memobj: mem->cpu Got response for addr 0x9a00 , 39424
 952000: system.memobj: size 0x8
 952000: system.memobj: id 94061710357008
 952000: system.memobj: data_hex : 41574863C64D89CF 
 952000: system.memobj: data : 0100000101010111010010000110001111000110010011011000100111001111 
 952000: system.memobj: fix data : 0100000101010111010010000110001111000110010011011000100111001111 
 952000: system.memobj: -------------------------------------
 952000: system.memobj: cpu->mem Got request for addr 0x94db0 , 609712
 952000: system.memobj: size 0x8
 952000: system.memobj: id 94061710357296
 952000: system.memobj: data_hex : 0000000000000000 
 952000: system.memobj: data : 0000000000000000000000000000000000000000000000000000000000000000 
 952000: system.memobj: hamming code addr: 609712 
 952000: system.memobj: hamming code : 0 
 952000: system.memobj: hamming code addr: 609720 
 952000: system.memobj: hamming code : 0 
 952000: system.memobj: hamming code addr: 609728 
 952000: system.memobj: hamming code : 0 
 952000: system.memobj: hamming code addr: 609736 
 952000: system.memobj: hamming code : 0 
 952000: system.memobj: hamming code addr: 609744 
 952000: system.memobj: hamming code : 0 
 952000: system.memobj: hamming code addr: 609752 
 952000: system.memobj: hamming code : 0 
 952000: system.memobj: hamming code addr: 609760 
 952000: system.memobj: hamming code : 0 
 952000: system.memobj: hamming code addr: 609768 
 952000: system.memobj: hamming code : 0 
 952000: system.memobj: Enter Error Bit index: 4 
 952000: system.memobj: flip data : 0001000000000000000000000000000000000000000000000000000000000000 
 952000: system.memobj: -------------------------------------
1022000: system.memobj: mem->cpu Got response for addr 0x9a00 , 39424
1022000: system.memobj: size 0x8
1022000: system.memobj: id 94061710357296
1022000: system.memobj: data_hex : 41574863C64D89CF 
1022000: system.memobj: data : 0100000101010111010010000110001111000110010011011000100111001111 
1022000: system.memobj: fix data : 0100000101010111010010000110001111000110010011011000100111001111 
1022000: system.memobj: -------------------------------------
1071000: system.memobj: mem->cpu Got response for addr 0x9a00 , 39424
1071000: system.memobj: size 0x8
1071000: system.memobj: id 94061710357008
1071000: system.memobj: data_hex : 41574863C64D89CF 
1071000: system.memobj: data : 0100000101010111010010000110001111000110010011011000100111001111 
1071000: system.memobj: fix data : 0100000101010111010010000110001111000110010011011000100111001111 
1071000: system.memobj: -------------------------------------
1120000: system.memobj: mem->cpu Got response for addr 0x9a08 , 39432
1120000: system.memobj: size 0x8
1120000: system.memobj: id 94061710357296
1120000: system.memobj: data_hex : 41564989D6415541 
1120000: system.memobj: data : 0100000101010110010010011000100111010110010000010101010101000001 
1120000: system.memobj: fix data : 0100000101010110010010011000100111010110010000010101010101000001 
1120000: system.memobj: -------------------------------------
1120000: system.memobj: cpu->mem Got request for addr 0x94da8 , 609704
1120000: system.memobj: size 0x8
1120000: system.memobj: id 94061710357584
1120000: system.memobj: data_hex : 0000000000000000 
1120000: system.memobj: data : 0000000000000000000000000000000000000000000000000000000000000000 
1120000: system.memobj: hamming code addr: 609704 
1120000: system.memobj: hamming code : 0 
1120000: system.memobj: hamming code addr: 609712 
1120000: system.memobj: hamming code : 0 
1120000: system.memobj: hamming code addr: 609720 
1120000: system.memobj: hamming code : 0 
1120000: system.memobj: hamming code addr: 609728 
1120000: system.memobj: hamming code : 0 
1120000: system.memobj: hamming code addr: 609736 
1120000: system.memobj: hamming code : 0 
1120000: system.memobj: hamming code addr: 609744 
1120000: system.memobj: hamming code : 0 
1120000: system.memobj: hamming code addr: 609752 
1120000: system.memobj: hamming code : 0 
1120000: system.memobj: hamming code addr: 609760 
1120000: system.memobj: hamming code : 0 
1120000: system.memobj: Enter Error Bit index: 2 
1120000: system.memobj: flip data : 0100000000000000000000000000000000000000000000000000000000000000 
1120000: system.memobj: -------------------------------------
1190000: system.memobj: mem->cpu Got response for addr 0x9a08 , 39432
1190000: system.memobj: size 0x8
1190000: system.memobj: id 94061710357584
1190000: system.memobj: data_hex : 41564989D6415541 
1190000: system.memobj: data : 0100000101010110010010011000100111010110010000010101010101000001 
1190000: system.memobj: fix data : 0100000101010110010010011000100111010110010000010101010101000001 
1190000: system.memobj: -------------------------------------
1239000: system.memobj: mem->cpu Got response for addr 0x9a08 , 39432
1239000: system.memobj: size 0x8
1239000: system.memobj: id 94061710357296
1239000: system.memobj: data_hex : 41564989D6415541 
1239000: system.memobj: data : 0100000101010110010010011000100111010110010000010101010101000001 
1239000: system.memobj: fix data : 0100000101010110010010011000100111010110010000010101010101000001 
1239000: system.memobj: -------------------------------------
1239000: system.memobj: cpu->mem Got request for addr 0x94da0 , 609696
1239000: system.memobj: size 0x8
1239000: system.memobj: id 94061710357872
1239000: system.memobj: data_hex : 0000000000000000 
1239000: system.memobj: data : 0000000000000000000000000000000000000000000000000000000000000000 
1239000: system.memobj: hamming code addr: 609696 
1239000: system.memobj: hamming code : 0 
1239000: system.memobj: hamming code addr: 609704 
1239000: system.memobj: hamming code : 0 
1239000: system.memobj: hamming code addr: 609712 
1239000: system.memobj: hamming code : 0 
1239000: system.memobj: hamming code addr: 609720 
1239000: system.memobj: hamming code : 0 
1239000: system.memobj: hamming code addr: 609728 
1239000: system.memobj: hamming code : 0 
1239000: system.memobj: hamming code addr: 609736 
1239000: system.memobj: hamming code : 0 
1239000: system.memobj: hamming code addr: 609744 
1239000: system.memobj: hamming code : 0 
1239000: system.memobj: hamming code addr: 609752 
1239000: system.memobj: hamming code : 0 
1239000: system.memobj: Enter Error Bit index: 8 
1239000: system.memobj: flip data : 0000000100000000000000000000000000000000000000000000000000000000 
1239000: system.memobj: -------------------------------------
1309000: system.memobj: mem->cpu Got response for addr 0x9a08 , 39432
1309000: system.memobj: size 0x8
1309000: system.memobj: id 94061710357872
1309000: system.memobj: data_hex : 41564989D6415541 
1309000: system.memobj: data : 0100000101010110010010011000100111010110010000010101010101000001 
1309000: system.memobj: fix data : 0100000101010110010010011000100111010110010000010101010101000001 
1309000: system.memobj: -------------------------------------
1358000: system.memobj: mem->cpu Got response for addr 0x9a10 , 39440
1358000: system.memobj: size 0x8
1358000: system.memobj: id 94061710357296
1358000: system.memobj: data_hex : 89F5415455534881 
1358000: system.memobj: data : 1000100111110101010000010101010001010101010100110100100010000001 
1358000: system.memobj: fix data : 1000100111110101010000010101010001010101010100110100100010000001 
1358000: system.memobj: -------------------------------------
1407000: system.memobj: mem->cpu Got response for addr 0x9a10 , 39440
1407000: system.memobj: size 0x8
1407000: system.memobj: id 94061710357872
1407000: system.memobj: data_hex : 89F5415455534881 
1407000: system.memobj: data : 1000100111110101010000010101010001010101010100110100100010000001 
1407000: system.memobj: fix data : 1000100111110101010000010101010001010101010100110100100010000001 
1407000: system.memobj: -------------------------------------
1407000: system.memobj: cpu->mem Got request for addr 0x94d98 , 609688
1407000: system.memobj: size 0x8
1407000: system.memobj: id 94061710358160
1407000: system.memobj: data_hex : 0000000000000000 
1407000: system.memobj: data : 0000000000000000000000000000000000000000000000000000000000000000 
1407000: system.memobj: hamming code addr: 609688 
1407000: system.memobj: hamming code : 0 
1407000: system.memobj: hamming code addr: 609696 
1407000: system.memobj: hamming code : 0 
1407000: system.memobj: hamming code addr: 609704 
1407000: system.memobj: hamming code : 0 
1407000: system.memobj: hamming code addr: 609712 
1407000: system.memobj: hamming code : 0 
1407000: system.memobj: hamming code addr: 609720 
1407000: system.memobj: hamming code : 0 
1407000: system.memobj: hamming code addr: 609728 
1407000: system.memobj: hamming code : 0 
1407000: system.memobj: hamming code addr: 609736 
1407000: system.memobj: hamming code : 0 
1407000: system.memobj: hamming code addr: 609744 
1407000: system.memobj: hamming code : 0 
1407000: system.memobj: Enter Error Bit index: 3 
1407000: system.memobj: flip data : 0010000000000000000000000000000000000000000000000000000000000000 
1407000: system.memobj: -------------------------------------
1477000: system.memobj: mem->cpu Got response for addr 0x9a10 , 39440
1477000: system.memobj: size 0x8
1477000: system.memobj: id 94061710358160
1477000: system.memobj: data_hex : 89F5415455534881 
1477000: system.memobj: data : 1000100111110101010000010101010001010101010100110100100010000001 
1477000: system.memobj: fix data : 1000100111110101010000010101010001010101010100110100100010000001 
1477000: system.memobj: -------------------------------------
1477000: system.memobj: cpu->mem Got request for addr 0x94d90 , 609680
1477000: system.memobj: size 0x8
1477000: system.memobj: id 94061710358448
1477000: system.memobj: data_hex : 0000000000000000 
1477000: system.memobj: data : 0000000000000000000000000000000000000000000000000000000000000000 
1477000: system.memobj: hamming code addr: 609680 
1477000: system.memobj: hamming code : 0 
1477000: system.memobj: hamming code addr: 609688 
1477000: system.memobj: hamming code : 0 
1477000: system.memobj: hamming code addr: 609696 
1477000: system.memobj: hamming code : 0 
1477000: system.memobj: hamming code addr: 609704 
1477000: system.memobj: hamming code : 0 
1477000: system.memobj: hamming code addr: 609712 
1477000: system.memobj: hamming code : 0 
1477000: system.memobj: hamming code addr: 609720 
1477000: system.memobj: hamming code : 0 
1477000: system.memobj: hamming code addr: 609728 
1477000: system.memobj: hamming code : 0 
1477000: system.memobj: hamming code addr: 609736 
1477000: system.memobj: hamming code : 0 
1477000: system.memobj: Enter Error Bit index: 5 
1477000: system.memobj: flip data : 0000100000000000000000000000000000000000000000000000000000000000 
1477000: system.memobj: -------------------------------------
1547000: system.memobj: mem->cpu Got response for addr 0x9a10 , 39440
1547000: system.memobj: size 0x8
1547000: system.memobj: id 94061710358448
1547000: system.memobj: data_hex : 89F5415455534881 
1547000: system.memobj: data : 1000100111110101010000010101010001010101010100110100100010000001 
1547000: system.memobj: fix data : 1000100111110101010000010101010001010101010100110100100010000001 
1547000: system.memobj: -------------------------------------
1547000: system.memobj: cpu->mem Got request for addr 0x94d88 , 609672
1547000: system.memobj: size 0x8
1547000: system.memobj: id 94061710358736
1547000: system.memobj: data_hex : 0000000000000000 
1547000: system.memobj: data : 0000000000000000000000000000000000000000000000000000000000000000 
1547000: system.memobj: hamming code addr: 609672 
1547000: system.memobj: hamming code : 0 
1547000: system.memobj: hamming code addr: 609680 
1547000: system.memobj: hamming code : 0 
1547000: system.memobj: hamming code addr: 609688 
1547000: system.memobj: hamming code : 0 
1547000: system.memobj: hamming code addr: 609696 
1547000: system.memobj: hamming code : 0 
1547000: system.memobj: hamming code addr: 609704 
1547000: system.memobj: hamming code : 0 
1547000: system.memobj: hamming code addr: 609712 
1547000: system.memobj: hamming code : 0 
1547000: system.memobj: hamming code addr: 609720 
1547000: system.memobj: hamming code : 0 
1547000: system.memobj: hamming code addr: 609728 
1547000: system.memobj: hamming code : 0 
1547000: system.memobj: Enter Error Bit index: 2 
1547000: system.memobj: flip data : 0100000000000000000000000000000000000000000000000000000000000000 
1547000: system.memobj: -------------------------------------
1617000: system.memobj: mem->cpu Got response for addr 0x9a10 , 39440
1617000: system.memobj: size 0x8
1617000: system.memobj: id 94061710358736
1617000: system.memobj: data_hex : 89F5415455534881 
1617000: system.memobj: data : 1000100111110101010000010101010001010101010100110100100010000001 
1617000: system.memobj: fix data : 1000100111110101010000010101010001010101010100110100100010000001 
1617000: system.memobj: -------------------------------------
1666000: system.memobj: mem->cpu Got response for addr 0x9a18 , 39448
1666000: system.memobj: size 0x8
1666000: system.memobj: id 94061710358448
1666000: system.memobj: data_hex : ECF801000048897C 
1666000: system.memobj: data : 1110110011111000000000010000000000000000010010001000100101111100 
1666000: system.memobj: fix data : 1110110011111000000000010000000000000000010010001000100101111100 
1666000: system.memobj: -------------------------------------
1715000: system.memobj: mem->cpu Got response for addr 0x9a18 , 39448
1715000: system.memobj: size 0x8
1715000: system.memobj: id 94061710358736
1715000: system.memobj: data_hex : ECF801000048897C 
1715000: system.memobj: data : 1110110011111000000000010000000000000000010010001000100101111100 
1715000: system.memobj: fix data : 1110110011111000000000010000000000000000010010001000100101111100 
1715000: system.memobj: -------------------------------------
1764000: system.memobj: mem->cpu Got response for addr 0x9a20 , 39456
1764000: system.memobj: size 0x8
1764000: system.memobj: id 94061710358448
1764000: system.memobj: data_hex : 2418488D7CC208B8 
1764000: system.memobj: data : 0010010000011000010010001000110101111100110000100000100010111000 
1764000: system.memobj: fix data : 0010010000011000010010001000110101111100110000100000100010111000 
1764000: system.memobj: -------------------------------------
1764000: system.memobj: cpu->mem Got request for addr 0x94ba8 , 609192
1764000: system.memobj: size 0x8
1764000: system.memobj: id 94061710359024
1764000: system.memobj: data_hex : 7402400000000000 
1764000: system.memobj: data : 0111010000000010010000000000000000000000000000000000000000000000 
1764000: system.memobj: hamming code addr: 609192 
1764000: system.memobj: hamming code : 14 
1764000: system.memobj: hamming code addr: 609200 
1764000: system.memobj: hamming code : 11 
1764000: system.memobj: hamming code addr: 609208 
1764000: system.memobj: hamming code : 5 
1764000: system.memobj: hamming code addr: 609216 
1764000: system.memobj: hamming code : 0 
1764000: system.memobj: hamming code addr: 609224 
1764000: system.memobj: hamming code : 0 
1764000: system.memobj: hamming code addr: 609232 
1764000: system.memobj: hamming code : 0 
1764000: system.memobj: hamming code addr: 609240 
1764000: system.memobj: hamming code : 0 
1764000: system.memobj: hamming code addr: 609248 
1764000: system.memobj: hamming code : 0 
1764000: system.memobj: Enter Error Bit index: 6 
1764000: system.memobj: flip data : 0111000000000010010000000000000000000000000000000000000000000000 
1764000: system.memobj: -------------------------------------
1834000: system.memobj: mem->cpu Got response for addr 0x9a20 , 39456
1834000: system.memobj: size 0x8
1834000: system.memobj: id 94061710359024
1834000: system.memobj: data_hex : 2418488D7CC208B8 
1834000: system.memobj: data : 0010010000011000010010001000110101111100110000100000100010111000 
1834000: system.memobj: fix data : 0010010000011000010010001000110101111100110000100000100010111000 
1834000: system.memobj: -------------------------------------
1897000: system.memobj: mem->cpu Got response for addr 0x9a20 , 39456
1897000: system.memobj: size 0x8
1897000: system.memobj: id 94061710359312
1897000: system.memobj: data_hex : 2418488D7CC208B8 
1897000: system.memobj: data : 0010010000011000010010001000110101111100110000100000100010111000 
1897000: system.memobj: fix data : 0010010000011000010010001000110101111100110000100000100010111000 
1897000: system.memobj: -------------------------------------
1946000: system.memobj: mem->cpu Got response for addr 0x9a28 , 39464
1946000: system.memobj: size 0x8
1946000: system.memobj: id 94061710359024
1946000: system.memobj: data_hex : 0000000031D24885 
1946000: system.memobj: data : 0000000000000000000000000000000000110001110100100100100010000101 
1946000: system.memobj: fix data : 0000000000000000000000000000000000110001110100100100100010000101 
1946000: system.memobj: -------------------------------------
1995000: system.memobj: mem->cpu Got response for addr 0x9a28 , 39464
1995000: system.memobj: size 0x8
1995000: system.memobj: id 94061710359312
1995000: system.memobj: data_hex : 0000000031D24885 
1995000: system.memobj: data : 0000000000000000000000000000000000110001110100100100100010000101 
1995000: system.memobj: fix data : 0000000000000000000000000000000000110001110100100100100010000101 
1995000: system.memobj: -------------------------------------
2044000: system.memobj: mem->cpu Got response for addr 0x9a28 , 39464
2044000: system.memobj: size 0x8
2044000: system.memobj: id 94061710359024
2044000: system.memobj: data_hex : 0000000031D24885 
2044000: system.memobj: data : 0000000000000000000000000000000000110001110100100100100010000101 
2044000: system.memobj: fix data : 0000000000000000000000000000000000110001110100100100100010000101 
2044000: system.memobj: -------------------------------------
2093000: system.memobj: mem->cpu Got response for addr 0x9a30 , 39472
2093000: system.memobj: size 0x8
2093000: system.memobj: id 94061710359312
2093000: system.memobj: data_hex : C048894C24104C89 
2093000: system.memobj: data : 1100000001001000100010010100110000100100000100000100110010001001 
2093000: system.memobj: fix data : 1100000001001000100010010100110000100100000100000100110010001001 
2093000: system.memobj: -------------------------------------
2142000: system.memobj: mem->cpu Got response for addr 0x9a30 , 39472
2142000: system.memobj: size 0x8
2142000: system.memobj: id 94061710359024
2142000: system.memobj: data_hex : C048894C24104C89 
2142000: system.memobj: data : 1100000001001000100010010100110000100100000100000100110010001001 
2142000: system.memobj: fix data : 1100000001001000100010010100110000100100000100000100110010001001 
2142000: system.memobj: -------------------------------------
2142000: system.memobj: cpu->mem Got request for addr 0x94ba0 , 609184
2142000: system.memobj: size 0x8
2142000: system.memobj: id 94061710359600
2142000: system.memobj: data_hex : F09F400000000000 
2142000: system.memobj: data : 1111000010011111010000000000000000000000000000000000000000000000 
2142000: system.memobj: hamming code addr: 609184 
2142000: system.memobj: hamming code : 7 
2142000: system.memobj: hamming code addr: 609192 
2142000: system.memobj: hamming code : 0 
2142000: system.memobj: hamming code addr: 609200 
2142000: system.memobj: hamming code : 5 
2142000: system.memobj: hamming code addr: 609208 
2142000: system.memobj: hamming code : 0 
2142000: system.memobj: hamming code addr: 609216 
2142000: system.memobj: hamming code : 0 
2142000: system.memobj: hamming code addr: 609224 
2142000: system.memobj: hamming code : 0 
2142000: system.memobj: hamming code addr: 609232 
2142000: system.memobj: hamming code : 0 
2142000: system.memobj: hamming code addr: 609240 
2142000: system.memobj: hamming code : 0 
2142000: system.memobj: Enter Error Bit index: 3 
2142000: system.memobj: flip data : 1101000010011111010000000000000000000000000000000000000000000000 
2142000: system.memobj: -------------------------------------
2212000: system.memobj: mem->cpu Got response for addr 0x9a30 , 39472
2212000: system.memobj: size 0x8
2212000: system.memobj: id 94061710359600
2212000: system.memobj: data_hex : C048894C24104C89 
2212000: system.memobj: data : 1100000001001000100010010100110000100100000100000100110010001001 
2212000: system.memobj: fix data : 1100000001001000100010010100110000100100000100000100110010001001 
2212000: system.memobj: -------------------------------------
2261000: system.memobj: mem->cpu Got response for addr 0x9a38 , 39480
2261000: system.memobj: size 0x8
2261000: system.memobj: id 94061710359024
2261000: system.memobj: data_hex : 4424087412448B1D 
2261000: system.memobj: data : 0100010000100100000010000111010000010010010001001000101100011101 
2261000: system.memobj: fix data : 0100010000100100000010000111010000010010010001001000101100011101 
2261000: system.memobj: -------------------------------------
2261000: system.memobj: cpu->mem Got request for addr 0x94b98 , 609176
2261000: system.memobj: size 0x8
2261000: system.memobj: id 94061710359888
2261000: system.memobj: data_hex : 60A0400000000000 
2261000: system.memobj: data : 0110000010100000010000000000000000000000000000000000000000000000 
2261000: system.memobj: hamming code addr: 609176 
2261000: system.memobj: hamming code : 3 
2261000: system.memobj: hamming code addr: 609184 
2261000: system.memobj: hamming code : 5 
2261000: system.memobj: hamming code addr: 609192 
2261000: system.memobj: hamming code : 5 
2261000: system.memobj: hamming code addr: 609200 
2261000: system.memobj: hamming code : 0 
2261000: system.memobj: hamming code addr: 609208 
2261000: system.memobj: hamming code : 0 
2261000: system.memobj: hamming code addr: 609216 
2261000: system.memobj: hamming code : 0 
2261000: system.memobj: hamming code addr: 609224 
2261000: system.memobj: hamming code : 0 
2261000: system.memobj: hamming code addr: 609232 
2261000: system.memobj: hamming code : 0 
2261000: system.memobj: Enter Error Bit index: 4 
2261000: system.memobj: flip data : 0111000010100000010000000000000000000000000000000000000000000000 
2261000: system.memobj: -------------------------------------
2331000: system.memobj: mem->cpu Got response for addr 0x9a38 , 39480
2331000: system.memobj: size 0x8
2331000: system.memobj: id 94061710359888
2331000: system.memobj: data_hex : 4424087412448B1D 
2331000: system.memobj: data : 0100010000100100000010000111010000010010010001001000101100011101 
2331000: system.memobj: fix data : 0100010000100100000010000111010000010010010001001000101100011101 
2331000: system.memobj: -------------------------------------
2380000: system.memobj: mem->cpu Got response for addr 0x9a48 , 39496
2380000: system.memobj: size 0x8
2380000: system.memobj: id 94061710359024
2380000: system.memobj: data_hex : 004585DB0F44D048 
2380000: system.memobj: data : 0000000001000101100001011101101100001111010001001101000001001000 
2380000: system.memobj: fix data : 0000000001000101100001011101101100001111010001001101000001001000 
2380000: system.memobj: -------------------------------------
2429000: system.memobj: mem->cpu Got response for addr 0x9a50 , 39504
2429000: system.memobj: size 0x8
2429000: system.memobj: id 94061710359888
2429000: system.memobj: data_hex : 8B84243002000089 
2429000: system.memobj: data : 1000101110000100001001000011000000000010000000000000000010001001 
2429000: system.memobj: fix data : 1000101110000100001001000011000000000010000000000000000010001001 
2429000: system.memobj: -------------------------------------
2478000: system.memobj: mem->cpu Got response for addr 0x94dc0 , 609728
2478000: system.memobj: size 0x8
2478000: system.memobj: id 94061710360176
2478000: system.memobj: data_hex : CAEDFFFFFF7F0000 
2478000: system.memobj: data : 1100101011101101111111111111111111111111011111110000000000000000 
2478000: system.memobj: hamming code addr: 609728 
2478000: system.memobj: hamming code out: 15 
2478000: system.memobj: find Error Bit index : 7 
2478000: system.memobj: hamming code addr: 609736 
2478000: system.memobj: hamming code out: 15 
2478000: system.memobj: hamming code addr: 609744 
2478000: system.memobj: hamming code out: 3 
2478000: system.memobj: hamming code addr: 609752 
2478000: system.memobj: hamming code out: 3 
2478000: system.memobj: hamming code addr: 609760 
2478000: system.memobj: hamming code out: 3 
2478000: system.memobj: hamming code addr: 609768 
2478000: system.memobj: hamming code out: 0 
2478000: system.memobj: hamming code addr: 609776 
2478000: system.memobj: hamming code out: 0 
2478000: system.memobj: hamming code addr: 609784 
2478000: system.memobj: hamming code out: 0 
2478000: system.memobj: fix data : 1100100011101101111111111111111111111111011111110000000000000000 
2478000: system.memobj: -------------------------------------
2527000: system.memobj: mem->cpu Got response for addr 0x9a50 , 39504
2527000: system.memobj: size 0x8
2527000: system.memobj: id 94061710360176
2527000: system.memobj: data_hex : 8B84243002000089 
2527000: system.memobj: data : 1000101110000100001001000011000000000010000000000000000010001001 
2527000: system.memobj: fix data : 1000101110000100001001000011000000000010000000000000000010001001 
2527000: system.memobj: -------------------------------------
2576000: system.memobj: mem->cpu Got response for addr 0x9a58 , 39512
2576000: system.memobj: size 0x8
2576000: system.memobj: id 94061710359888
2576000: system.memobj: data_hex : 15536D170048893D 
2576000: system.memobj: data : 0001010101010011011011010001011100000000010010001000100100111101 
2576000: system.memobj: fix data : 0001010101010011011011010001011100000000010010001000100100111101 
2576000: system.memobj: -------------------------------------
2576000: system.memobj: cpu->mem Got request for addr 0x807b0 , 526256
2576000: system.memobj: size 0x4
2576000: system.memobj: id 94061721083920
2576000: system.memobj: data_hex : 00000000 
2576000: system.memobj: data : 00000000000000000000000000000000 
2576000: system.memobj: hamming code addr: 526256 
2576000: system.memobj: hamming code : 0 
2576000: system.memobj: hamming code addr: 526264 
2576000: system.memobj: hamming code : 0 
2576000: system.memobj: hamming code addr: 526272 
2576000: system.memobj: hamming code : 0 
2576000: system.memobj: hamming code addr: 526280 
2576000: system.memobj: hamming code : 0 
2576000: system.memobj: Enter Error Bit index: 3 
2576000: system.memobj: flip data : 00100000000000000000000000000000 
2576000: system.memobj: -------------------------------------
2646000: system.memobj: mem->cpu Got response for addr 0x9a58 , 39512
2646000: system.memobj: size 0x8
2646000: system.memobj: id 94061721083920
2646000: system.memobj: data_hex : 15536D170048893D 
2646000: system.memobj: data : 0001010101010011011011010001011100000000010010001000100100111101 
2646000: system.memobj: fix data : 0001010101010011011011010001011100000000010010001000100100111101 
2646000: system.memobj: -------------------------------------
2695000: system.memobj: mem->cpu Got response for addr 0x9a60 , 39520
2695000: system.memobj: size 0x8
2695000: system.memobj: id 94061710359888
2695000: system.memobj: data_hex : 949318004889058D 
2695000: system.memobj: data : 1001010010010011000110000000000001001000100010010000010110001101 
2695000: system.memobj: fix data : 1001010010010011000110000000000001001000100010010000010110001101 
2695000: system.memobj: -------------------------------------
2695000: system.memobj: cpu->mem Got request for addr 0x92df8 , 601592
2695000: system.memobj: size 0x8
2695000: system.memobj: id 94061721084208
2695000: system.memobj: data_hex : E8EDFFFFFF7F0000 
2695000: system.memobj: data : 1110100011101101111111111111111111111111011111110000000000000000 
2695000: system.memobj: hamming code addr: 601592 
2695000: system.memobj: hamming code : 9 
2695000: system.memobj: hamming code addr: 601600 
2695000: system.memobj: hamming code : 15 
2695000: system.memobj: hamming code addr: 601608 
2695000: system.memobj: hamming code : 3 
2695000: system.memobj: hamming code addr: 601616 
2695000: system.memobj: hamming code : 3 
2695000: system.memobj: hamming code addr: 601624 
2695000: system.memobj: hamming code : 3 
2695000: system.memobj: hamming code addr: 601632 
2695000: system.memobj: hamming code : 0 
2695000: system.memobj: hamming code addr: 601640 
2695000: system.memobj: hamming code : 0 
2695000: system.memobj: hamming code addr: 601648 
2695000: system.memobj: hamming code : 0 
2695000: system.memobj: Enter Error Bit index: 4 
2695000: system.memobj: flip data : 1111100011101101111111111111111111111111011111110000000000000000 
2695000: system.memobj: -------------------------------------
2765000: system.memobj: mem->cpu Got response for addr 0x9a60 , 39520
2765000: system.memobj: size 0x8
2765000: system.memobj: id 94061721084208
2765000: system.memobj: data_hex : 949318004889058D 
2765000: system.memobj: data : 1001010010010011000110000000000001001000100010010000010110001101 
2765000: system.memobj: fix data : 1001010010010011000110000000000001001000100010010000010110001101 
2765000: system.memobj: -------------------------------------
2828000: system.memobj: mem->cpu Got response for addr 0x9a68 , 39528
2828000: system.memobj: size 0x8
2828000: system.memobj: id 94061710359888
2828000: system.memobj: data_hex : 5F17006666906690 
2828000: system.memobj: data : 0101111100010111000000000110011001100110100100000110011010010000 
2828000: system.memobj: fix data : 0101111100010111000000000110011001100110100100000110011010010000 
2828000: system.memobj: -------------------------------------
2828000: system.memobj: cpu->mem Got request for addr 0x7f9f8 , 522744
2828000: system.memobj: size 0x8
2828000: system.memobj: id 94061721084496
2828000: system.memobj: data_hex : C8EDFFFFFF7F0000 
2828000: system.memobj: data : 1100100011101101111111111111111111111111011111110000000000000000 
2828000: system.memobj: hamming code addr: 522744 
2828000: system.memobj: hamming code : 15 
2828000: system.memobj: hamming code addr: 522752 
2828000: system.memobj: hamming code : 15 
2828000: system.memobj: hamming code addr: 522760 
2828000: system.memobj: hamming code : 3 
2828000: system.memobj: hamming code addr: 522768 
2828000: system.memobj: hamming code : 3 
2828000: system.memobj: hamming code addr: 522776 
2828000: system.memobj: hamming code : 3 
2828000: system.memobj: hamming code addr: 522784 
2828000: system.memobj: hamming code : 0 
2828000: system.memobj: hamming code addr: 522792 
2828000: system.memobj: hamming code : 0 
2828000: system.memobj: hamming code addr: 522800 
2828000: system.memobj: hamming code : 0 
2828000: system.memobj: Enter Error Bit index: 4 
2828000: system.memobj: flip data : 1101100011101101111111111111111111111111011111110000000000000000 
2828000: system.memobj: -------------------------------------
2898000: system.memobj: mem->cpu Got response for addr 0x9a68 , 39528
2898000: system.memobj: size 0x8
2898000: system.memobj: id 94061721084496
2898000: system.memobj: data_hex : 5F17006666906690 
2898000: system.memobj: data : 0101111100010111000000000110011001100110100100000110011010010000 
2898000: system.memobj: fix data : 0101111100010111000000000110011001100110100100000110011010010000 
2898000: system.memobj: -------------------------------------
2947000: system.memobj: mem->cpu Got response for addr 0x9a68 , 39528
2947000: system.memobj: size 0x8
2947000: system.memobj: id 94061710359888
2947000: system.memobj: data_hex : 5F17006666906690 
2947000: system.memobj: data : 0101111100010111000000000110011001100110100100000110011010010000 
2947000: system.memobj: fix data : 0101111100010111000000000110011001100110100100000110011010010000 
2947000: system.memobj: -------------------------------------
2996000: system.memobj: mem->cpu Got response for addr 0x9a70 , 39536
2996000: system.memobj: size 0x8
2996000: system.memobj: id 94061721084496
2996000: system.memobj: data_hex : 488B074883C70848 
2996000: system.memobj: data : 0100100010001011000001110100100010000011110001110000100001001000 
2996000: system.memobj: fix data : 0100100010001011000001110100100010000011110001110000100001001000 
2996000: system.memobj: -------------------------------------
3045000: system.memobj: mem->cpu Got response for addr 0x94de8 , 609768
3045000: system.memobj: size 0x8
3045000: system.memobj: id 94061721084784
3045000: system.memobj: data_hex : 0000000000000000 
3045000: system.memobj: data : 0000000000000000000000000000000000000000000000000000000000000000 
3045000: system.memobj: fix data : 0000000000000000000000000000000000000000000000000000000000000000 
3045000: system.memobj: -------------------------------------
3094000: system.memobj: mem->cpu Got response for addr 0x9a70 , 39536
3094000: system.memobj: size 0x8
3094000: system.memobj: id 94061721084784
3094000: system.memobj: data_hex : 488B074883C70848 
3094000: system.memobj: data : 0100100010001011000001110100100010000011110001110000100001001000 
3094000: system.memobj: fix data : 0100100010001011000001110100100010000011110001110000100001001000 
3094000: system.memobj: -------------------------------------
3143000: system.memobj: mem->cpu Got response for addr 0x9a70 , 39536
3143000: system.memobj: size 0x8
3143000: system.memobj: id 94061721084496
3143000: system.memobj: data_hex : 488B074883C70848 
3143000: system.memobj: data : 0100100010001011000001110100100010000011110001110000100001001000 
3143000: system.memobj: fix data : 0100100010001011000001110100100010000011110001110000100001001000 
3143000: system.memobj: -------------------------------------
3192000: system.memobj: mem->cpu Got response for addr 0x9a78 , 39544
3192000: system.memobj: size 0x8
3192000: system.memobj: id 94061721084784
3192000: system.memobj: data_hex : 85C075F4E87FC000 
3192000: system.memobj: data : 1000010111000000011101011111010011101000011111111100000000000000 
3192000: system.memobj: fix data : 1000010111000000011101011111010011101000011111111100000000000000 
3192000: system.memobj: -------------------------------------
3241000: system.memobj: mem->cpu Got response for addr 0x9a78 , 39544
3241000: system.memobj: size 0x8
3241000: system.memobj: id 94061721084496
3241000: system.memobj: data_hex : 85C075F4E87FC000 
3241000: system.memobj: data : 1000010111000000011101011111010011101000011111111100000000000000 
3241000: system.memobj: fix data : 1000010111000000011101011111010011101000011111111100000000000000 
3241000: system.memobj: -------------------------------------
3290000: system.memobj: mem->cpu Got response for addr 0x9a78 , 39544
3290000: system.memobj: size 0x8
3290000: system.memobj: id 94061721084784
3290000: system.memobj: data_hex : 85C075F4E87FC000 
3290000: system.memobj: data : 1000010111000000011101011111010011101000011111111100000000000000 
3290000: system.memobj: fix data : 1000010111000000011101011111010011101000011111111100000000000000 
3290000: system.memobj: -------------------------------------
3339000: system.memobj: mem->cpu Got response for addr 0x9a80 , 39552
3339000: system.memobj: size 0x8
3339000: system.memobj: id 94061721084496
3339000: system.memobj: data_hex : 00448B15286D1700 
3339000: system.memobj: data : 0000000001000100100010110001010100101000011011010001011100000000 
3339000: system.memobj: fix data : 0000000001000100100010110001010100101000011011010001011100000000 
3339000: system.memobj: -------------------------------------
3339000: system.memobj: cpu->mem Got request for addr 0x94b88 , 609160
3339000: system.memobj: size 0x8
3339000: system.memobj: id 94061721085072
3339000: system.memobj: data_hex : 819A400000000000 
3339000: system.memobj: data : 1000000110011010010000000000000000000000000000000000000000000000 
3339000: system.memobj: hamming code addr: 609160 
3339000: system.memobj: hamming code : 15 
3339000: system.memobj: hamming code addr: 609168 
3339000: system.memobj: hamming code : 6 
3339000: system.memobj: hamming code addr: 609176 
3339000: system.memobj: hamming code : 5 
3339000: system.memobj: hamming code addr: 609184 
3339000: system.memobj: hamming code : 0 
3339000: system.memobj: hamming code addr: 609192 
3339000: system.memobj: hamming code : 0 
3339000: system.memobj: hamming code addr: 609200 
3339000: system.memobj: hamming code : 0 
3339000: system.memobj: hamming code addr: 609208 
3339000: system.memobj: hamming code : 0 
3339000: system.memobj: hamming code addr: 609216 
3339000: system.memobj: hamming code : 0 
3339000: system.memobj: Enter Error Bit index: 7 
3339000: system.memobj: flip data : 1000001110011010010000000000000000000000000000000000000000000000 
3339000: system.memobj: -------------------------------------
3437000: system.memobj: mem->cpu Got response for addr 0x15b00 , 88832
3437000: system.memobj: size 0x8
3437000: system.memobj: id 94061721085072
3437000: system.memobj: data_hex : 488B0731D231C931 
3437000: system.memobj: data : 0100100010001011000001110011000111010010001100011100100100110001 
3437000: system.memobj: fix data : 0100100010001011000001110011000111010010001100011100100100110001 
3437000: system.memobj: -------------------------------------
3514000: system.memobj: mem->cpu Got response for addr 0x94df0 , 609776
3514000: system.memobj: size 0x8
3514000: system.memobj: id 94061721084496
3514000: system.memobj: data_hex : 2100000000000000 
3514000: system.memobj: data : 0010000100000000000000000000000000000000000000000000000000000000 
3514000: system.memobj: fix data : 0010000100000000000000000000000000000000000000000000000000000000 
3514000: system.memobj: -------------------------------------
3591000: system.memobj: mem->cpu Got response for addr 0x15b00 , 88832
3591000: system.memobj: size 0x8
3591000: system.memobj: id 94061721084496
3591000: system.memobj: data_hex : 488B0731D231C931 
3591000: system.memobj: data : 0100100010001011000001110011000111010010001100011100100100110001 
3591000: system.memobj: fix data : 0100100010001011000001110011000111010010001100011100100100110001 
3591000: system.memobj: -------------------------------------
3640000: system.memobj: mem->cpu Got response for addr 0x15b00 , 88832
3640000: system.memobj: size 0x8
3640000: system.memobj: id 94061721085072
3640000: system.memobj: data_hex : 488B0731D231C931 
3640000: system.memobj: data : 0100100010001011000001110011000111010010001100011100100100110001 
3640000: system.memobj: fix data : 0100100010001011000001110011000111010010001100011100100100110001 
3640000: system.memobj: -------------------------------------
3689000: system.memobj: mem->cpu Got response for addr 0x15b00 , 88832
3689000: system.memobj: size 0x8
3689000: system.memobj: id 94061721084496
3689000: system.memobj: data_hex : 488B0731D231C931 
3689000: system.memobj: data : 0100100010001011000001110011000111010010001100011100100100110001 
3689000: system.memobj: fix data : 0100100010001011000001110011000111010010001100011100100100110001 
3689000: system.memobj: -------------------------------------
3738000: system.memobj: mem->cpu Got response for addr 0x15b08 , 88840
3738000: system.memobj: size 0x8
3738000: system.memobj: id 94061721085072
3738000: system.memobj: data_hex : F64885C074476690 
3738000: system.memobj: data : 1111011001001000100001011100000001110100010001110110011010010000 
3738000: system.memobj: fix data : 1111011001001000100001011100000001110100010001110110011010010000 
3738000: system.memobj: -------------------------------------
3787000: system.memobj: mem->cpu Got response for addr 0x15b08 , 88840
3787000: system.memobj: size 0x8
3787000: system.memobj: id 94061721084496
3787000: system.memobj: data_hex : F64885C074476690 
3787000: system.memobj: data : 1111011001001000100001011100000001110100010001110110011010010000 
3787000: system.memobj: fix data : 1111011001001000100001011100000001110100010001110110011010010000 
3787000: system.memobj: -------------------------------------
3836000: system.memobj: mem->cpu Got response for addr 0x15b08 , 88840
3836000: system.memobj: size 0x8
3836000: system.memobj: id 94061721085072
3836000: system.memobj: data_hex : F64885C074476690 
3836000: system.memobj: data : 1111011001001000100001011100000001110100010001110110011010010000 
3836000: system.memobj: fix data : 1111011001001000100001011100000001110100010001110110011010010000 
3836000: system.memobj: -------------------------------------
3885000: system.memobj: mem->cpu Got response for addr 0x15b08 , 88840
3885000: system.memobj: size 0x8
3885000: system.memobj: id 94061721084496
3885000: system.memobj: data_hex : F64885C074476690 
3885000: system.memobj: data : 1111011001001000100001011100000001110100010001110110011010010000 
3885000: system.memobj: fix data : 1111011001001000100001011100000001110100010001110110011010010000 
3885000: system.memobj: -------------------------------------
3934000: system.memobj: mem->cpu Got response for addr 0x15b10 , 88848
3934000: system.memobj: size 0x8
3934000: system.memobj: id 94061721085072
3934000: system.memobj: data_hex : 4883E8034883F814 
3934000: system.memobj: data : 0100100010000011111010000000001101001000100000111111100000010100 
3934000: system.memobj: fix data : 0100100010000011111010000000001101001000100000111111100000010100 
3934000: system.memobj: -------------------------------------
3983000: system.memobj: mem->cpu Got response for addr 0x15b10 , 88848
3983000: system.memobj: size 0x8
3983000: system.memobj: id 94061721084496
3983000: system.memobj: data_hex : 4883E8034883F814 
3983000: system.memobj: data : 0100100010000011111010000000001101001000100000111111100000010100 
3983000: system.memobj: fix data : 0100100010000011111010000000001101001000100000111111100000010100 
3983000: system.memobj: -------------------------------------
4032000: system.memobj: mem->cpu Got response for addr 0x15b18 , 88856
4032000: system.memobj: size 0x8
4032000: system.memobj: id 94061721085072
4032000: system.memobj: data_hex : 7726FF24C580EB45 
4032000: system.memobj: data : 0111011100100110111111110010010011000101100000001110101101000101 
4032000: system.memobj: fix data : 0111011100100110111111110010010011000101100000001110101101000101 
4032000: system.memobj: -------------------------------------
4081000: system.memobj: mem->cpu Got response for addr 0x15b40 , 88896
4081000: system.memobj: size 0x8
4081000: system.memobj: id 94061721084496
4081000: system.memobj: data_hex : 4883C710488B0748 
4081000: system.memobj: data : 0100100010000011110001110001000001001000100010110000011101001000 
4081000: system.memobj: fix data : 0100100010000011110001110001000001001000100010110000011101001000 
4081000: system.memobj: -------------------------------------
4130000: system.memobj: mem->cpu Got response for addr 0x15b40 , 88896
4130000: system.memobj: size 0x8
4130000: system.memobj: id 94061721085072
4130000: system.memobj: data_hex : 4883C710488B0748 
4130000: system.memobj: data : 0100100010000011110001110001000001001000100010110000011101001000 
4130000: system.memobj: fix data : 0100100010000011110001110001000001001000100010110000011101001000 
4130000: system.memobj: -------------------------------------
4207000: system.memobj: mem->cpu Got response for addr 0x94e00 , 609792
4207000: system.memobj: size 0x8
4207000: system.memobj: id 94061721084496
4207000: system.memobj: data_hex : 1000000000000000 
4207000: system.memobj: data : 0001000000000000000000000000000000000000000000000000000000000000 
4207000: system.memobj: fix data : 0001000000000000000000000000000000000000000000000000000000000000 
4207000: system.memobj: -------------------------------------
4284000: system.memobj: mem->cpu Got response for addr 0x15b40 , 88896
4284000: system.memobj: size 0x8
4284000: system.memobj: id 94061721084496
4284000: system.memobj: data_hex : 4883C710488B0748 
4284000: system.memobj: data : 0100100010000011110001110001000001001000100010110000011101001000 
4284000: system.memobj: fix data : 0100100010000011110001110001000001001000100010110000011101001000 
4284000: system.memobj: -------------------------------------
4333000: system.memobj: mem->cpu Got response for addr 0x15b48 , 88904
4333000: system.memobj: size 0x8
4333000: system.memobj: id 94061721085072
4333000: system.memobj: data_hex : 85C075C483FA0F0F 
4333000: system.memobj: data : 1000010111000000011101011100010010000011111110100000111100001111 
4333000: system.memobj: fix data : 1000010111000000011101011100010010000011111110100000111100001111 
4333000: system.memobj: -------------------------------------
4382000: system.memobj: mem->cpu Got response for addr 0x15b48 , 88904
4382000: system.memobj: size 0x8
4382000: system.memobj: id 94061721084496
4382000: system.memobj: data_hex : 85C075C483FA0F0F 
4382000: system.memobj: data : 1000010111000000011101011100010010000011111110100000111100001111 
4382000: system.memobj: fix data : 1000010111000000011101011100010010000011111110100000111100001111 
4382000: system.memobj: -------------------------------------
4431000: system.memobj: mem->cpu Got response for addr 0x15b10 , 88848
4431000: system.memobj: size 0x8
4431000: system.memobj: id 94061721085072
4431000: system.memobj: data_hex : 4883E8034883F814 
4431000: system.memobj: data : 0100100010000011111010000000001101001000100000111111100000010100 
4431000: system.memobj: fix data : 0100100010000011111010000000001101001000100000111111100000010100 
4431000: system.memobj: -------------------------------------
4480000: system.memobj: mem->cpu Got response for addr 0x15b10 , 88848
4480000: system.memobj: size 0x8
4480000: system.memobj: id 94061721084496
4480000: system.memobj: data_hex : 4883E8034883F814 
4480000: system.memobj: data : 0100100010000011111010000000001101001000100000111111100000010100 
4480000: system.memobj: fix data : 0100100010000011111010000000001101001000100000111111100000010100 
4480000: system.memobj: -------------------------------------
4529000: system.memobj: mem->cpu Got response for addr 0x15b18 , 88856
4529000: system.memobj: size 0x8
4529000: system.memobj: id 94061721085072
4529000: system.memobj: data_hex : 7726FF24C580EB45 
4529000: system.memobj: data : 0111011100100110111111110010010011000101100000001110101101000101 
4529000: system.memobj: fix data : 0111011100100110111111110010010011000101100000001110101101000101 
4529000: system.memobj: -------------------------------------
4578000: system.memobj: mem->cpu Got response for addr 0x15b18 , 88856
4578000: system.memobj: size 0x8
4578000: system.memobj: id 94061721084496
4578000: system.memobj: data_hex : 7726FF24C580EB45 
4578000: system.memobj: data : 0111011100100110111111110010010011000101100000001110101101000101 
4578000: system.memobj: fix data : 0111011100100110111111110010010011000101100000001110101101000101 
4578000: system.memobj: -------------------------------------
4627000: system.memobj: mem->cpu Got response for addr 0x15b20 , 88864
4627000: system.memobj: size 0x8
4627000: system.memobj: id 94061721085072
4627000: system.memobj: data_hex : 00488B4708BAFFFF 
4627000: system.memobj: data : 0000000001001000100010110100011100001000101110101111111111111111 
4627000: system.memobj: fix data : 0000000001001000100010110100011100001000101110101111111111111111 
4627000: system.memobj: -------------------------------------
4690000: system.memobj: mem->cpu Got response for addr 0x5ebe8 , 388072
4690000: system.memobj: size 0x8
4690000: system.memobj: id 94061721085360
4690000: system.memobj: data_hex : 6F5B410000000000 
4690000: system.memobj: data : 0110111101011011010000010000000000000000000000000000000000000000 
4690000: system.memobj: fix data : 0110111101011011010000010000000000000000000000000000000000000000 
4690000: system.memobj: -------------------------------------
4739000: system.memobj: mem->cpu Got response for addr 0x15b68 , 88936
4739000: system.memobj: size 0x8
4739000: system.memobj: id 94061721085360
4739000: system.memobj: data_hex : 4885C075A3EBDD48 
4739000: system.memobj: data : 0100100010000101110000000111010110100011111010111101110101001000 
4739000: system.memobj: fix data : 0100100010000101110000000111010110100011111010111101110101001000 
4739000: system.memobj: -------------------------------------
4788000: system.memobj: mem->cpu Got response for addr 0x15b70 , 88944
4788000: system.memobj: size 0x8
4788000: system.memobj: id 94061721085072
4788000: system.memobj: data_hex : 8B47084883C71048 
4788000: system.memobj: data : 1000101101000111000010000100100010000011110001110001000001001000 
4788000: system.memobj: fix data : 1000101101000111000010000100100010000011110001110001000001001000 
4788000: system.memobj: -------------------------------------
4865000: system.memobj: mem->cpu Got response for addr 0x94e08 , 609800
4865000: system.memobj: size 0x8
4865000: system.memobj: id 94061721085648
4865000: system.memobj: data_hex : FFFB8B0700000000 
4865000: system.memobj: data : 1111111111111011100010110000011100000000000000000000000000000000 
4865000: system.memobj: fix data : 1111111111111011100010110000011100000000000000000000000000000000 
4865000: system.memobj: -------------------------------------
4942000: system.memobj: mem->cpu Got response for addr 0x15b70 , 88944
4942000: system.memobj: size 0x8
4942000: system.memobj: id 94061721085648
4942000: system.memobj: data_hex : 8B47084883C71048 
4942000: system.memobj: data : 1000101101000111000010000100100010000011110001110001000001001000 
4942000: system.memobj: fix data : 1000101101000111000010000100100010000011110001110001000001001000 
4942000: system.memobj: -------------------------------------
4991000: system.memobj: mem->cpu Got response for addr 0x15b70 , 88944
4991000: system.memobj: size 0x8
4991000: system.memobj: id 94061721085072
4991000: system.memobj: data_hex : 8B47084883C71048 
4991000: system.memobj: data : 1000101101000111000010000100100010000011110001110001000001001000 
4991000: system.memobj: fix data : 1000101101000111000010000100100010000011110001110001000001001000 
4991000: system.memobj: -------------------------------------
5040000: system.memobj: mem->cpu Got response for addr 0x15b78 , 88952
5040000: system.memobj: size 0x8
5040000: system.memobj: id 94061721085648
5040000: system.memobj: data_hex : 8905F2D21700488B 
5040000: system.memobj: data : 1000100100000101111100101101001000010111000000000100100010001011 
5040000: system.memobj: fix data : 1000100100000101111100101101001000010111000000000100100010001011 
5040000: system.memobj: -------------------------------------
5040000: system.memobj: cpu->mem Got request for addr 0x92e70 , 601712
5040000: system.memobj: size 0x8
5040000: system.memobj: id 94061721085936
5040000: system.memobj: data_hex : FFFB8B0700000000 
5040000: system.memobj: data : 1111111111111011100010110000011100000000000000000000000000000000 
5040000: system.memobj: hamming code addr: 601712 
5040000: system.memobj: hamming code : 3 
5040000: system.memobj: hamming code addr: 601720 
5040000: system.memobj: hamming code : 9 
5040000: system.memobj: hamming code addr: 601728 
5040000: system.memobj: hamming code : 13 
5040000: system.memobj: hamming code addr: 601736 
5040000: system.memobj: hamming code : 13 
5040000: system.memobj: hamming code addr: 601744 
5040000: system.memobj: hamming code : 0 
5040000: system.memobj: hamming code addr: 601752 
5040000: system.memobj: hamming code : 0 
5040000: system.memobj: hamming code addr: 601760 
5040000: system.memobj: hamming code : 0 
5040000: system.memobj: hamming code addr: 601768 
5040000: system.memobj: hamming code : 0 
5040000: system.memobj: Enter Error Bit index: 5 
5040000: system.memobj: flip data : 1111011111111011100010110000011100000000000000000000000000000000 
5040000: system.memobj: -------------------------------------
5110000: system.memobj: mem->cpu Got response for addr 0x15b78 , 88952
5110000: system.memobj: size 0x8
5110000: system.memobj: id 94061721085936
5110000: system.memobj: data_hex : 8905F2D21700488B 
5110000: system.memobj: data : 1000100100000101111100101101001000010111000000000100100010001011 
5110000: system.memobj: fix data : 1000100100000101111100101101001000010111000000000100100010001011 
5110000: system.memobj: -------------------------------------
5159000: system.memobj: mem->cpu Got response for addr 0x15b80 , 88960
5159000: system.memobj: size 0x8
5159000: system.memobj: id 94061721085648
5159000: system.memobj: data_hex : 074885C0758AEBC4 
5159000: system.memobj: data : 0000011101001000100001011100000001110101100010101110101111000100 
5159000: system.memobj: fix data : 0000011101001000100001011100000001110101100010101110101111000100 
5159000: system.memobj: -------------------------------------
5236000: system.memobj: mem->cpu Got response for addr 0x94e10 , 609808
5236000: system.memobj: size 0x8
5236000: system.memobj: id 94061721085936
5236000: system.memobj: data_hex : 0600000000000000 
5236000: system.memobj: data : 0000011000000000000000000000000000000000000000000000000000000000 
5236000: system.memobj: fix data : 0000011000000000000000000000000000000000000000000000000000000000 
5236000: system.memobj: -------------------------------------
5313000: system.memobj: mem->cpu Got response for addr 0x15b80 , 88960
5313000: system.memobj: size 0x8
5313000: system.memobj: id 94061721085936
5313000: system.memobj: data_hex : 074885C0758AEBC4 
5313000: system.memobj: data : 0000011101001000100001011100000001110101100010101110101111000100 
5313000: system.memobj: fix data : 0000011101001000100001011100000001110101100010101110101111000100 
5313000: system.memobj: -------------------------------------
5362000: system.memobj: mem->cpu Got response for addr 0x15b80 , 88960
5362000: system.memobj: size 0x8
5362000: system.memobj: id 94061721085648
5362000: system.memobj: data_hex : 074885C0758AEBC4 
5362000: system.memobj: data : 0000011101001000100001011100000001110101100010101110101111000100 
5362000: system.memobj: fix data : 0000011101001000100001011100000001110101100010101110101111000100 
5362000: system.memobj: -------------------------------------
5411000: system.memobj: mem->cpu Got response for addr 0x15b10 , 88848
5411000: system.memobj: size 0x8
5411000: system.memobj: id 94061721085936
5411000: system.memobj: data_hex : 4883E8034883F814 
5411000: system.memobj: data : 0100100010000011111010000000001101001000100000111111100000010100 
5411000: system.memobj: fix data : 0100100010000011111010000000001101001000100000111111100000010100 
5411000: system.memobj: -------------------------------------
5460000: system.memobj: mem->cpu Got response for addr 0x15b10 , 88848
5460000: system.memobj: size 0x8
5460000: system.memobj: id 94061721085648
5460000: system.memobj: data_hex : 4883E8034883F814 
5460000: system.memobj: data : 0100100010000011111010000000001101001000100000111111100000010100 
5460000: system.memobj: fix data : 0100100010000011111010000000001101001000100000111111100000010100 
5460000: system.memobj: -------------------------------------
5509000: system.memobj: mem->cpu Got response for addr 0x15b18 , 88856
5509000: system.memobj: size 0x8
5509000: system.memobj: id 94061721085936
5509000: system.memobj: data_hex : 7726FF24C580EB45 
5509000: system.memobj: data : 0111011100100110111111110010010011000101100000001110101101000101 
5509000: system.memobj: fix data : 0111011100100110111111110010010011000101100000001110101101000101 
5509000: system.memobj: -------------------------------------
5558000: system.memobj: mem->cpu Got response for addr 0x15b18 , 88856
5558000: system.memobj: size 0x8
5558000: system.memobj: id 94061721085648
5558000: system.memobj: data_hex : 7726FF24C580EB45 
5558000: system.memobj: data : 0111011100100110111111110010010011000101100000001110101101000101 
5558000: system.memobj: fix data : 0111011100100110111111110010010011000101100000001110101101000101 
5558000: system.memobj: -------------------------------------
5607000: system.memobj: mem->cpu Got response for addr 0x15b20 , 88864
5607000: system.memobj: size 0x8
5607000: system.memobj: id 94061721085936
5607000: system.memobj: data_hex : 00488B4708BAFFFF 
5607000: system.memobj: data : 0000000001001000100010110100011100001000101110101111111111111111 
5607000: system.memobj: fix data : 0000000001001000100010110100011100001000101110101111111111111111 
5607000: system.memobj: -------------------------------------
5656000: system.memobj: mem->cpu Got response for addr 0x5eb98 , 387992
5656000: system.memobj: size 0x8
5656000: system.memobj: id 94061721085648
5656000: system.memobj: data_hex : EE5B410000000000 
5656000: system.memobj: data : 1110111001011011010000010000000000000000000000000000000000000000 
5656000: system.memobj: fix data : 1110111001011011010000010000000000000000000000000000000000000000 
5656000: system.memobj: -------------------------------------
5705000: system.memobj: mem->cpu Got response for addr 0x15be8 , 89064
5705000: system.memobj: size 0x8
5705000: system.memobj: id 94061721085648
5705000: system.memobj: data_hex : FFE95EFFFFFF488B 
5705000: system.memobj: data : 1111111111101001010111101111111111111111111111110100100010001011 
5705000: system.memobj: fix data : 1111111111101001010111101111111111111111111111110100100010001011 
5705000: system.memobj: -------------------------------------
5754000: system.memobj: mem->cpu Got response for addr 0x15bf0 , 89072
5754000: system.memobj: size 0x8
5754000: system.memobj: id 94061721085936
5754000: system.memobj: data_hex : 47084883C7104889 
5754000: system.memobj: data : 0100011100001000010010001000001111000111000100000100100010001001 
5754000: system.memobj: fix data : 0100011100001000010010001000001111000111000100000100100010001001 
5754000: system.memobj: -------------------------------------
5831000: system.memobj: mem->cpu Got response for addr 0x94e18 , 609816
5831000: system.memobj: size 0x8
5831000: system.memobj: id 94061721085648
5831000: system.memobj: data_hex : 0010000000000000 
5831000: system.memobj: data : 0000000000010000000000000000000000000000000000000000000000000000 
5831000: system.memobj: fix data : 0000000000010000000000000000000000000000000000000000000000000000 
5831000: system.memobj: -------------------------------------
5908000: system.memobj: mem->cpu Got response for addr 0x15bf0 , 89072
5908000: system.memobj: size 0x8
5908000: system.memobj: id 94061721085648
5908000: system.memobj: data_hex : 47084883C7104889 
5908000: system.memobj: data : 0100011100001000010010001000001111000111000100000100100010001001 
5908000: system.memobj: fix data : 0100011100001000010010001000001111000111000100000100100010001001 
5908000: system.memobj: -------------------------------------
5957000: system.memobj: mem->cpu Got response for addr 0x15bf0 , 89072
5957000: system.memobj: size 0x8
5957000: system.memobj: id 94061721085936
5957000: system.memobj: data_hex : 47084883C7104889 
5957000: system.memobj: data : 0100011100001000010010001000001111000111000100000100100010001001 
5957000: system.memobj: fix data : 0100011100001000010010001000001111000111000100000100100010001001 
5957000: system.memobj: -------------------------------------
6006000: system.memobj: mem->cpu Got response for addr 0x15bf8 , 89080
6006000: system.memobj: size 0x8
6006000: system.memobj: id 94061721085648
6006000: system.memobj: data_hex : 0543D91700488B07 
6006000: system.memobj: data : 0000010101000011110110010001011100000000010010001000101100000111 
6006000: system.memobj: fix data : 0000010101000011110110010001011100000000010010001000101100000111 
6006000: system.memobj: -------------------------------------
6006000: system.memobj: cpu->mem Got request for addr 0x93540 , 603456
6006000: system.memobj: size 0x8
6006000: system.memobj: id 94061721086224
6006000: system.memobj: data_hex : 0010000000000000 
6006000: system.memobj: data : 0000000000010000000000000000000000000000000000000000000000000000 
6006000: system.memobj: hamming code addr: 603456 
6006000: system.memobj: hamming code : 0 
6006000: system.memobj: hamming code addr: 603464 
6006000: system.memobj: hamming code : 7 
6006000: system.memobj: hamming code addr: 603472 
6006000: system.memobj: hamming code : 0 
6006000: system.memobj: hamming code addr: 603480 
6006000: system.memobj: hamming code : 0 
6006000: system.memobj: hamming code addr: 603488 
6006000: system.memobj: hamming code : 0 
6006000: system.memobj: hamming code addr: 603496 
6006000: system.memobj: hamming code : 0 
6006000: system.memobj: hamming code addr: 603504 
6006000: system.memobj: hamming code : 0 
6006000: system.memobj: hamming code addr: 603512 
6006000: system.memobj: hamming code : 0 
6006000: system.memobj: Enter Error Bit index: 3 
6006000: system.memobj: flip data : 0010000000010000000000000000000000000000000000000000000000000000 
6006000: system.memobj: -------------------------------------
6076000: system.memobj: mem->cpu Got response for addr 0x15bf8 , 89080
6076000: system.memobj: size 0x8
6076000: system.memobj: id 94061721086224
6076000: system.memobj: data_hex : 0543D91700488B07 
6076000: system.memobj: data : 0000010101000011110110010001011100000000010010001000101100000111 
6076000: system.memobj: fix data : 0000010101000011110110010001011100000000010010001000101100000111 
6076000: system.memobj: -------------------------------------
6153000: system.memobj: mem->cpu Got response for addr 0x94e20 , 609824
6153000: system.memobj: size 0x8
6153000: system.memobj: id 94061721085648
6153000: system.memobj: data_hex : 1100000000000000 
6153000: system.memobj: data : 0001000100000000000000000000000000000000000000000000000000000000 
6153000: system.memobj: fix data : 0001000100000000000000000000000000000000000000000000000000000000 
6153000: system.memobj: -------------------------------------
6230000: system.memobj: mem->cpu Got response for addr 0x15c00 , 89088
6230000: system.memobj: size 0x8
6230000: system.memobj: id 94061721085648
6230000: system.memobj: data_hex : 4885C00F8507FFFF 
6230000: system.memobj: data : 0100100010000101110000000000111110000101000001111111111111111111 
6230000: system.memobj: fix data : 0100100010000101110000000000111110000101000001111111111111111111 
6230000: system.memobj: -------------------------------------
6279000: system.memobj: mem->cpu Got response for addr 0x15c00 , 89088
6279000: system.memobj: size 0x8
6279000: system.memobj: id 94061721086224
6279000: system.memobj: data_hex : 4885C00F8507FFFF 
6279000: system.memobj: data : 0100100010000101110000000000111110000101000001111111111111111111 
6279000: system.memobj: fix data : 0100100010000101110000000000111110000101000001111111111111111111 
6279000: system.memobj: -------------------------------------
6328000: system.memobj: mem->cpu Got response for addr 0x15c08 , 89096
6328000: system.memobj: size 0x8
6328000: system.memobj: id 94061721085648
6328000: system.memobj: data_hex : FFE93EFFFFFF488B 
6328000: system.memobj: data : 1111111111101001001111101111111111111111111111110100100010001011 
6328000: system.memobj: fix data : 1111111111101001001111101111111111111111111111110100100010001011 
6328000: system.memobj: -------------------------------------
6377000: system.memobj: mem->cpu Got response for addr 0x15b10 , 88848
6377000: system.memobj: size 0x8
6377000: system.memobj: id 94061721086224
6377000: system.memobj: data_hex : 4883E8034883F814 
6377000: system.memobj: data : 0100100010000011111010000000001101001000100000111111100000010100 
6377000: system.memobj: fix data : 0100100010000011111010000000001101001000100000111111100000010100 
6377000: system.memobj: -------------------------------------
6426000: system.memobj: mem->cpu Got response for addr 0x15b10 , 88848
6426000: system.memobj: size 0x8
6426000: system.memobj: id 94061721085648
6426000: system.memobj: data_hex : 4883E8034883F814 
6426000: system.memobj: data : 0100100010000011111010000000001101001000100000111111100000010100 
6426000: system.memobj: fix data : 0100100010000011111010000000001101001000100000111111100000010100 
6426000: system.memobj: -------------------------------------
6475000: system.memobj: mem->cpu Got response for addr 0x15b18 , 88856
6475000: system.memobj: size 0x8
6475000: system.memobj: id 94061721086224
6475000: system.memobj: data_hex : 7726FF24C580EB45 
6475000: system.memobj: data : 0111011100100110111111110010010011000101100000001110101101000101 
6475000: system.memobj: fix data : 0111011100100110111111110010010011000101100000001110101101000101 
6475000: system.memobj: -------------------------------------
6524000: system.memobj: mem->cpu Got response for addr 0x15b18 , 88856
6524000: system.memobj: size 0x8
6524000: system.memobj: id 94061721085648
6524000: system.memobj: data_hex : 7726FF24C580EB45 
6524000: system.memobj: data : 0111011100100110111111110010010011000101100000001110101101000101 
6524000: system.memobj: fix data : 0111011100100110111111110010010011000101100000001110101101000101 
6524000: system.memobj: -------------------------------------
6573000: system.memobj: mem->cpu Got response for addr 0x15b20 , 88864
6573000: system.memobj: size 0x8
6573000: system.memobj: id 94061721086224
6573000: system.memobj: data_hex : 00488B4708BAFFFF 
6573000: system.memobj: data : 0000000001001000100010110100011100001000101110101111111111111111 
6573000: system.memobj: fix data : 0000000001001000100010110100011100001000101110101111111111111111 
6573000: system.memobj: -------------------------------------
6622000: system.memobj: mem->cpu Got response for addr 0x5ebf0 , 388080
6622000: system.memobj: size 0x8
6622000: system.memobj: id 94061721085648
6622000: system.memobj: data_hex : 575B410000000000 
6622000: system.memobj: data : 0101011101011011010000010000000000000000000000000000000000000000 
6622000: system.memobj: fix data : 0101011101011011010000010000000000000000000000000000000000000000 
6622000: system.memobj: -------------------------------------
6671000: system.memobj: mem->cpu Got response for addr 0x15b50 , 88912
6671000: system.memobj: size 0x8
6671000: system.memobj: id 94061721085648
6671000: system.memobj: data_hex : 84F9000000F3C348 
6671000: system.memobj: data : 1000010011111001000000000000000000000000111100111100001101001000 
6671000: system.memobj: fix data : 1000010011111001000000000000000000000000111100111100001101001000 
6671000: system.memobj: -------------------------------------
6720000: system.memobj: mem->cpu Got response for addr 0x15b58 , 88920
6720000: system.memobj: size 0x8
6720000: system.memobj: id 94061721086224
6720000: system.memobj: data_hex : 8B47084883C71089 
6720000: system.memobj: data : 1000101101000111000010000100100010000011110001110001000010001001 
6720000: system.memobj: fix data : 1000101101000111000010000100100010000011110001110001000010001001 
6720000: system.memobj: -------------------------------------
6797000: system.memobj: mem->cpu Got response for addr 0x94e28 , 609832
6797000: system.memobj: size 0x8
6797000: system.memobj: id 94061721085648
6797000: system.memobj: data_hex : 6400000000000000 
6797000: system.memobj: data : 0110010000000000000000000000000000000000000000000000000000000000 
6797000: system.memobj: fix data : 0110010000000000000000000000000000000000000000000000000000000000 
6797000: system.memobj: -------------------------------------
6874000: system.memobj: mem->cpu Got response for addr 0x15b58 , 88920
6874000: system.memobj: size 0x8
6874000: system.memobj: id 94061721085648
6874000: system.memobj: data_hex : 8B47084883C71089 
6874000: system.memobj: data : 1000101101000111000010000100100010000011110001110001000010001001 
6874000: system.memobj: fix data : 1000101101000111000010000100100010000011110001110001000010001001 
6874000: system.memobj: -------------------------------------
6923000: system.memobj: mem->cpu Got response for addr 0x15b58 , 88920
6923000: system.memobj: size 0x8
6923000: system.memobj: id 94061721086224
6923000: system.memobj: data_hex : 8B47084883C71089 
6923000: system.memobj: data : 1000101101000111000010000100100010000011110001110001000010001001 
6923000: system.memobj: fix data : 1000101101000111000010000100100010000011110001110001000010001001 
6923000: system.memobj: -------------------------------------
6972000: system.memobj: mem->cpu Got response for addr 0x15b60 , 88928
6972000: system.memobj: size 0x8
6972000: system.memobj: id 94061721085648
6972000: system.memobj: data_hex : 058BD91700488B07 
[...]
340814000: system.memobj: hamming code addr: 609168 
340814000: system.memobj: hamming code out: 0 
340814000: system.memobj: hamming code addr: 609176 
340814000: system.memobj: hamming code out: 0 
340814000: system.memobj: hamming code addr: 609184 
340814000: system.memobj: hamming code out: 0 
340814000: system.memobj: fix data : 0010010010100000010000000000000000000000000000000000000000000000 
340814000: system.memobj: -------------------------------------
340863000: system.memobj: mem->cpu Got response for addr 0xa020 , 40992
340863000: system.memobj: size 0x8
340863000: system.memobj: id 94061726686544
340863000: system.memobj: data_hex : 5461FFFFB800F057 
340863000: system.memobj: data : 0101010001100001111111111111111110111000000000001111000001010111 
340863000: system.memobj: fix data : 0101010001100001111111111111111110111000000000001111000001010111 
340863000: system.memobj: -------------------------------------
340912000: system.memobj: mem->cpu Got response for addr 0xa028 , 41000
340912000: system.memobj: size 0x8
340912000: system.memobj: id 94061727629328
340912000: system.memobj: data_hex : 0031DB482D00F057 
340912000: system.memobj: data : 0000000000110001110110110100100000101101000000001111000001010111 
340912000: system.memobj: fix data : 0000000000110001110110110100100000101101000000001111000001010111 
340912000: system.memobj: -------------------------------------
340961000: system.memobj: mem->cpu Got response for addr 0xa028 , 41000
340961000: system.memobj: size 0x8
340961000: system.memobj: id 94061726686544
340961000: system.memobj: data_hex : 0031DB482D00F057 
340961000: system.memobj: data : 0000000000110001110110110100100000101101000000001111000001010111 
340961000: system.memobj: fix data : 0000000000110001110110110100100000101101000000001111000001010111 
340961000: system.memobj: -------------------------------------
341010000: system.memobj: mem->cpu Got response for addr 0xa028 , 41000
341010000: system.memobj: size 0x8
341010000: system.memobj: id 94061727629328
341010000: system.memobj: data_hex : 0031DB482D00F057 
341010000: system.memobj: data : 0000000000110001110110110100100000101101000000001111000001010111 
341010000: system.memobj: fix data : 0000000000110001110110110100100000101101000000001111000001010111 
341010000: system.memobj: -------------------------------------
341059000: system.memobj: mem->cpu Got response for addr 0xa030 , 41008
341059000: system.memobj: size 0x8
341059000: system.memobj: id 94061726686544
341059000: system.memobj: data_hex : 0048C1F8034839C3 
341059000: system.memobj: data : 0000000001001000110000011111100000000011010010000011100111000011 
341059000: system.memobj: fix data : 0000000001001000110000011111100000000011010010000011100111000011 
341059000: system.memobj: -------------------------------------
341108000: system.memobj: mem->cpu Got response for addr 0xa030 , 41008
341108000: system.memobj: size 0x8
341108000: system.memobj: id 94061727629328
341108000: system.memobj: data_hex : 0048C1F8034839C3 
341108000: system.memobj: data : 0000000001001000110000011111100000000011010010000011100111000011 
341108000: system.memobj: fix data : 0000000001001000110000011111100000000011010010000011100111000011 
341108000: system.memobj: -------------------------------------
341157000: system.memobj: mem->cpu Got response for addr 0xa030 , 41008
341157000: system.memobj: size 0x8
341157000: system.memobj: id 94061726686544
341157000: system.memobj: data_hex : 0048C1F8034839C3 
341157000: system.memobj: data : 0000000001001000110000011111100000000011010010000011100111000011 
341157000: system.memobj: fix data : 0000000001001000110000011111100000000011010010000011100111000011 
341157000: system.memobj: -------------------------------------
341206000: system.memobj: mem->cpu Got response for addr 0xa038 , 41016
341206000: system.memobj: size 0x8
341206000: system.memobj: id 94061727629328
341206000: system.memobj: data_hex : 73154889C5666690 
341206000: system.memobj: data : 0111001100010101010010001000100111000101011001100110011010010000 
341206000: system.memobj: fix data : 0111001100010101010010001000100111000101011001100110011010010000 
341206000: system.memobj: -------------------------------------
341255000: system.memobj: mem->cpu Got response for addr 0xa048 , 41032
341255000: system.memobj: size 0x8
341255000: system.memobj: id 94061726686544
341255000: system.memobj: data_hex : FFC34839EB72F148 
341255000: system.memobj: data : 1111111111000011010010000011100111101011011100101111000101001000 
341255000: system.memobj: fix data : 1111111111000011010010000011100111101011011100101111000101001000 
341255000: system.memobj: -------------------------------------
341304000: system.memobj: mem->cpu Got response for addr 0xa050 , 41040
341304000: system.memobj: size 0x8
341304000: system.memobj: id 94061727629328
341304000: system.memobj: data_hex : 83C4085B5DC36666 
341304000: system.memobj: data : 1000001111000100000010000101101101011101110000110110011001100110 
341304000: system.memobj: fix data : 1000001111000100000010000101101101011101110000110110011001100110 
341304000: system.memobj: -------------------------------------
341367000: system.memobj: mem->cpu Got response for addr 0xa050 , 41040
341367000: system.memobj: size 0x8
341367000: system.memobj: id 94061726686544
341367000: system.memobj: data_hex : 83C4085B5DC36666 
341367000: system.memobj: data : 1000001111000100000010000101101101011101110000110110011001100110 
341367000: system.memobj: fix data : 1000001111000100000010000101101101011101110000110110011001100110 
341367000: system.memobj: -------------------------------------
341387000: system.memobj: mem->cpu Got response for addr 0x94b78 , 609144
341387000: system.memobj: size 0x8
341387000: system.memobj: id 94061727629328
341387000: system.memobj: data_hex : B4EBFFFFFF7F0000 
341387000: system.memobj: data : 1011010011101011111111111111111111111111011111110000000000000000 
341387000: system.memobj: hamming code addr: 609144 
341387000: system.memobj: hamming code out: 2 
341387000: system.memobj: find Error Bit index : 6 
341387000: system.memobj: hamming code addr: 609152 
341387000: system.memobj: hamming code out: 14 
341387000: system.memobj: hamming code addr: 609160 
341387000: system.memobj: hamming code out: 3 
341387000: system.memobj: hamming code addr: 609168 
341387000: system.memobj: hamming code out: 3 
341387000: system.memobj: hamming code addr: 609176 
341387000: system.memobj: hamming code out: 3 
341387000: system.memobj: hamming code addr: 609184 
341387000: system.memobj: hamming code out: 0 
341387000: system.memobj: hamming code addr: 609192 
341387000: system.memobj: hamming code out: 0 
341387000: system.memobj: hamming code addr: 609200 
341387000: system.memobj: hamming code out: 0 
341387000: system.memobj: fix data : 1011000011101011111111111111111111111111011111110000000000000000 
341387000: system.memobj: -------------------------------------
341436000: system.memobj: mem->cpu Got response for addr 0xa050 , 41040
341436000: system.memobj: size 0x8
341436000: system.memobj: id 94061727629328
341436000: system.memobj: data_hex : 83C4085B5DC36666 
341436000: system.memobj: data : 1000001111000100000010000101101101011101110000110110011001100110 
341436000: system.memobj: fix data : 1000001111000100000010000101101101011101110000110110011001100110 
341436000: system.memobj: -------------------------------------
341456000: system.memobj: mem->cpu Got response for addr 0x94b80 , 609152
341456000: system.memobj: size 0x8
341456000: system.memobj: id 94061726686544
341456000: system.memobj: data_hex : 4000000000000000 
341456000: system.memobj: data : 0100000000000000000000000000000000000000000000000000000000000000 
341456000: system.memobj: hamming code addr: 609152 
341456000: system.memobj: hamming code out: 0 
341456000: system.memobj: find Error Bit index : 2 
341456000: system.memobj: hamming code addr: 609160 
341456000: system.memobj: hamming code out: 0 
341456000: system.memobj: hamming code addr: 609168 
341456000: system.memobj: hamming code out: 0 
341456000: system.memobj: hamming code addr: 609176 
341456000: system.memobj: hamming code out: 0 
341456000: system.memobj: hamming code addr: 609184 
341456000: system.memobj: hamming code out: 0 
341456000: system.memobj: hamming code addr: 609192 
341456000: system.memobj: hamming code out: 0 
341456000: system.memobj: hamming code addr: 609200 
341456000: system.memobj: hamming code out: 0 
341456000: system.memobj: hamming code addr: 609208 
341456000: system.memobj: hamming code out: 0 
341456000: system.memobj: fix data : 0000000000000000000000000000000000000000000000000000000000000000 
341456000: system.memobj: -------------------------------------
341505000: system.memobj: mem->cpu Got response for addr 0xa050 , 41040
341505000: system.memobj: size 0x8
341505000: system.memobj: id 94061726686544
341505000: system.memobj: data_hex : 83C4085B5DC36666 
341505000: system.memobj: data : 1000001111000100000010000101101101011101110000110110011001100110 
341505000: system.memobj: fix data : 1000001111000100000010000101101101011101110000110110011001100110 
341505000: system.memobj: -------------------------------------
341554000: system.memobj: mem->cpu Got response for addr 0x94b88 , 609160
341554000: system.memobj: size 0x8
341554000: system.memobj: id 94061727629328
341554000: system.memobj: data_hex : 9D9B400000000000 
341554000: system.memobj: data : 1001110110011011010000000000000000000000000000000000000000000000 
341554000: system.memobj: hamming code addr: 609160 
341554000: system.memobj: hamming code out: 12 
341554000: system.memobj: find Error Bit index : 4 
341554000: system.memobj: hamming code addr: 609168 
341554000: system.memobj: hamming code out: 10 
341554000: system.memobj: hamming code addr: 609176 
341554000: system.memobj: hamming code out: 5 
341554000: system.memobj: hamming code addr: 609184 
341554000: system.memobj: hamming code out: 0 
341554000: system.memobj: hamming code addr: 609192 
341554000: system.memobj: hamming code out: 0 
341554000: system.memobj: hamming code addr: 609200 
341554000: system.memobj: hamming code out: 0 
341554000: system.memobj: hamming code addr: 609208 
341554000: system.memobj: hamming code out: 0 
341554000: system.memobj: hamming code addr: 609216 
341554000: system.memobj: hamming code out: 0 
341554000: system.memobj: fix data : 1000110110011011010000000000000000000000000000000000000000000000 
341554000: system.memobj: -------------------------------------
341617000: system.memobj: mem->cpu Got response for addr 0x9b88 , 39816
341617000: system.memobj: size 0x8
341617000: system.memobj: id 94061727629328
341617000: system.memobj: data_hex : 04FF54241031C090 
341617000: system.memobj: data : 0000010011111111010101000010010000010000001100011100000010010000 
341617000: system.memobj: fix data : 0000010011111111010101000010010000010000001100011100000010010000 
341617000: system.memobj: -------------------------------------
341666000: system.memobj: mem->cpu Got response for addr 0x9b88 , 39816
341666000: system.memobj: size 0x8
341666000: system.memobj: id 94061726686544
341666000: system.memobj: data_hex : 04FF54241031C090 
341666000: system.memobj: data : 0000010011111111010101000010010000010000001100011100000010010000 
341666000: system.memobj: fix data : 0000010011111111010101000010010000010000001100011100000010010000 
341666000: system.memobj: -------------------------------------
341715000: system.memobj: mem->cpu Got response for addr 0x9b90 , 39824
341715000: system.memobj: size 0x8
341715000: system.memobj: id 94061727629328
341715000: system.memobj: data_hex : E81B0500004489EF 
341715000: system.memobj: data : 1110100000011011000001010000000000000000010001001000100111101111 
341715000: system.memobj: fix data : 1110100000011011000001010000000000000000010001001000100111101111 
341715000: system.memobj: -------------------------------------
341715000: system.memobj: cpu->mem Got request for addr 0x94b88 , 609160
341715000: system.memobj: size 0x8
341715000: system.memobj: id 94061727629616
341715000: system.memobj: data_hex : 959B400000000000 
341715000: system.memobj: data : 1001010110011011010000000000000000000000000000000000000000000000 
341715000: system.memobj: hamming code addr: 609160 
341715000: system.memobj: hamming code : 2 
341715000: system.memobj: hamming code addr: 609168 
341715000: system.memobj: hamming code : 10 
341715000: system.memobj: hamming code addr: 609176 
341715000: system.memobj: hamming code : 5 
341715000: system.memobj: hamming code addr: 609184 
341715000: system.memobj: hamming code : 0 
341715000: system.memobj: hamming code addr: 609192 
341715000: system.memobj: hamming code : 0 
341715000: system.memobj: hamming code addr: 609200 
341715000: system.memobj: hamming code : 0 
341715000: system.memobj: hamming code addr: 609208 
341715000: system.memobj: hamming code : 0 
341715000: system.memobj: hamming code addr: 609216 
341715000: system.memobj: hamming code : 0 
341715000: system.memobj: Enter Error Bit index: 7 
341715000: system.memobj: flip data : 1001011110011011010000000000000000000000000000000000000000000000 
341715000: system.memobj: -------------------------------------
341785000: system.memobj: mem->cpu Got response for addr 0xa0b0 , 41136
341785000: system.memobj: size 0x8
341785000: system.memobj: id 94061727629616
341785000: system.memobj: data_hex : 48895C24F048896C 
341785000: system.memobj: data : 0100100010001001010111000010010011110000010010001000100101101100 
341785000: system.memobj: fix data : 0100100010001001010111000010010011110000010010001000100101101100 
341785000: system.memobj: -------------------------------------
341785000: system.memobj: cpu->mem Got request for addr 0x94b78 , 609144
341785000: system.memobj: size 0x8
341785000: system.memobj: id 94061727629328
341785000: system.memobj: data_hex : B0EBFFFFFF7F0000 
341785000: system.memobj: data : 1011000011101011111111111111111111111111011111110000000000000000 
341785000: system.memobj: hamming code addr: 609144 
341785000: system.memobj: hamming code : 2 
341785000: system.memobj: hamming code addr: 609152 
341785000: system.memobj: hamming code : 14 
341785000: system.memobj: hamming code addr: 609160 
341785000: system.memobj: hamming code : 3 
341785000: system.memobj: hamming code addr: 609168 
341785000: system.memobj: hamming code : 3 
341785000: system.memobj: hamming code addr: 609176 
341785000: system.memobj: hamming code : 3 
341785000: system.memobj: hamming code addr: 609184 
341785000: system.memobj: hamming code : 0 
341785000: system.memobj: hamming code addr: 609192 
341785000: system.memobj: hamming code : 0 
341785000: system.memobj: hamming code addr: 609200 
341785000: system.memobj: hamming code : 0 
341785000: system.memobj: Enter Error Bit index: 6 
341785000: system.memobj: flip data : 1011010011101011111111111111111111111111011111110000000000000000 
341785000: system.memobj: -------------------------------------
341855000: system.memobj: mem->cpu Got response for addr 0xa0b0 , 41136
341855000: system.memobj: size 0x8
341855000: system.memobj: id 94061727629328
341855000: system.memobj: data_hex : 48895C24F048896C 
341855000: system.memobj: data : 0100100010001001010111000010010011110000010010001000100101101100 
341855000: system.memobj: fix data : 0100100010001001010111000010010011110000010010001000100101101100 
341855000: system.memobj: -------------------------------------
341904000: system.memobj: mem->cpu Got response for addr 0xa0b8 , 41144
341904000: system.memobj: size 0x8
341904000: system.memobj: id 94061727629616
341904000: system.memobj: data_hex : 24F84883EC284883 
341904000: system.memobj: data : 0010010011111000010010001000001111101100001010000100100010000011 
341904000: system.memobj: fix data : 0010010011111000010010001000001111101100001010000100100010000011 
341904000: system.memobj: -------------------------------------
341904000: system.memobj: cpu->mem Got request for addr 0x94b80 , 609152
341904000: system.memobj: size 0x8
341904000: system.memobj: id 94061727629328
341904000: system.memobj: data_hex : 0000000000000000 
341904000: system.memobj: data : 0000000000000000000000000000000000000000000000000000000000000000 
341904000: system.memobj: hamming code addr: 609152 
341904000: system.memobj: hamming code : 0 
341904000: system.memobj: hamming code addr: 609160 
341904000: system.memobj: hamming code : 0 
341904000: system.memobj: hamming code addr: 609168 
341904000: system.memobj: hamming code : 0 
341904000: system.memobj: hamming code addr: 609176 
341904000: system.memobj: hamming code : 0 
341904000: system.memobj: hamming code addr: 609184 
341904000: system.memobj: hamming code : 0 
341904000: system.memobj: hamming code addr: 609192 
341904000: system.memobj: hamming code : 0 
341904000: system.memobj: hamming code addr: 609200 
341904000: system.memobj: hamming code : 0 
341904000: system.memobj: hamming code addr: 609208 
341904000: system.memobj: hamming code : 0 
341904000: system.memobj: Enter Error Bit index: 1 
341904000: system.memobj: flip data : 1000000000000000000000000000000000000000000000000000000000000000 
341904000: system.memobj: -------------------------------------
341974000: system.memobj: mem->cpu Got response for addr 0xa0b8 , 41144
341974000: system.memobj: size 0x8
341974000: system.memobj: id 94061727629328
341974000: system.memobj: data_hex : 24F84883EC284883 
341974000: system.memobj: data : 0010010011111000010010001000001111101100001010000100100010000011 
341974000: system.memobj: fix data : 0010010011111000010010001000001111101100001010000100100010000011 
341974000: system.memobj: -------------------------------------
342023000: system.memobj: mem->cpu Got response for addr 0xa0b8 , 41144
342023000: system.memobj: size 0x8
342023000: system.memobj: id 94061727629616
342023000: system.memobj: data_hex : 24F84883EC284883 
342023000: system.memobj: data : 0010010011111000010010001000001111101100001010000100100010000011 
342023000: system.memobj: fix data : 0010010011111000010010001000001111101100001010000100100010000011 
342023000: system.memobj: -------------------------------------
342072000: system.memobj: mem->cpu Got response for addr 0xa0c0 , 41152
342072000: system.memobj: size 0x8
342072000: system.memobj: id 94061727629328
342072000: system.memobj: data_hex : 3D227F180000740F 
342072000: system.memobj: data : 0011110100100010011111110001100000000000000000000111010000001111 
342072000: system.memobj: fix data : 0011110100100010011111110001100000000000000000000111010000001111 
342072000: system.memobj: -------------------------------------
342092000: system.memobj: mem->cpu Got response for addr 0x91fe8 , 597992
342092000: system.memobj: size 0x8
342092000: system.memobj: id 94061727629616
342092000: system.memobj: data_hex : C940B5F204674005 
342092000: system.memobj: data : 1100100101000000101101011111001000000100011001110100000000000101 
342092000: system.memobj: hamming code addr: 597992 
342092000: system.memobj: hamming code out: 0 
342092000: system.memobj: find Error Bit index : 1 
342092000: system.memobj: hamming code addr: 598000 
342092000: system.memobj: hamming code out: 15 
342092000: system.memobj: find Error Bit index : 6 
342092000: system.memobj: hamming code addr: 598008 
342092000: system.memobj: hamming code out: 2 
342092000: system.memobj: find Error Bit index : 3 
342092000: system.memobj: hamming code addr: 598016 
342092000: system.memobj: hamming code out: 3 
342092000: system.memobj: find Error Bit index : 21901 
342092000: system.memobj: hamming code addr: 598024 
342092000: system.memobj: hamming code out: 0 
342092000: system.memobj: find Error Bit index : 6 
342092000: system.memobj: hamming code addr: 598032 
342092000: system.memobj: hamming code out: 0 
342092000: system.memobj: find Error Bit index : 1935495449 
